@<TRIPOS>MOLECULE
PYC
12 12 1 0 0 
SMALL
USER_CHARGES


@<TRIPOS>ATOM
  1 O        1.9006    -1.1983    -0.0168 O.co2 1 <1>  -0.9000 
  2 O        2.1771     0.9904     0.0194 O.co2 1 <1>  -0.9000 
  3 C        1.4333    -0.0237     0.0019 C.2   1 <1>   1.0320 
  4 C       -0.0095     0.1280     0.0025 C.2   1 <1>  -0.3836 
  5 C       -0.8508     1.2126     0.0187 C.2   1 <1>  -0.1500 
  6 H       -0.5327     2.2240     0.0356 H     1 <1>   0.1500 
  7 C       -2.1653     0.7402     0.0089 C.2   1 <1>  -0.1500 
  8 H       -3.0432     1.3325     0.0169 H     1 <1>   0.1500 
  9 C       -2.1191    -0.6239    -0.0130 C.2   1 <1>  -0.3016 
 10 H       -2.8964    -1.3424    -0.0259 H     1 <1>   0.1500 
 11 N       -0.8015    -0.9865    -0.0166 N.pl3 1 <1>   0.0332 
 12 H       -0.4021    -1.9439    -0.0315 H     1 <1>   0.2700 
@<TRIPOS>BOND
  1   1   3  ar  
  2   2   3  ar  
  3   3   4  1   
  4   4   5  2   
  5   4  11  1   
  6   5   6  1   
  7   5   7  1   
  8   7   8  1   
  9   7   9  2   
 10   9  10  1   
 11   9  11  1   
 12  11  12  1   
@<TRIPOS>SUBSTRUCTURE
  1 ****   4 GROUP 4 **** **** 0

# MOE 2019.01 (io_trps.svl 2018.10)
