@<TRIPOS>MOLECULE
ICO
18 19 1 0 0 
SMALL
USER_CHARGES


@<TRIPOS>ATOM
  1 C       -0.3539    -0.1501     0.0298 C.ar  1 <1>   0.0000 
  2 C       -0.9887    -1.3976     0.1550 C.ar  1 <1>  -0.1500 
  3 H       -0.3981    -2.2735     0.2484 H     1 <1>   0.1500 
  4 C       -2.3744    -1.4633     0.1543 C.ar  1 <1>  -0.1500 
  5 H       -2.8537    -2.4029     0.2486 H     1 <1>   0.1500 
  6 C       -3.1548    -0.2908     0.0293 C.ar  1 <1>  -0.1500 
  7 H       -4.2112    -0.3653     0.0315 H     1 <1>   0.1500 
  8 C       -2.5459     0.9467    -0.0951 C.ar  1 <1>  -0.1500 
  9 H       -3.1160     1.8337    -0.1895 H     1 <1>   0.1500 
 10 C       -1.1451     0.9870    -0.0920 C.ar  1 <1>  -0.1516 
 11 N       -0.2909     2.0658    -0.1988 N.pl3 1 <1>   0.0332 
 12 H       -0.5833     3.0488    -0.3019 H     1 <1>   0.2700 
 13 C        1.0025     1.6282    -0.1463 C.2   1 <1>  -0.3016 
 14 H        1.8289     2.2894    -0.2100 H     1 <1>   0.1500 
 15 C        1.0092     0.2614    -0.0050 C.2   1 <1>  -0.2330 
 16 C        2.1966    -0.5957     0.0907 C.2   1 <1>   1.0330 
 17 O        3.3468    -0.0700     0.0434 O.co2 1 <1>  -0.9000 
 18 O        2.0816    -1.8487     0.2193 O.co2 1 <1>  -0.9000 
@<TRIPOS>BOND
  1   1   2  ar  
  2   1  10  ar  
  3   1  15  1   
  4   2   3  1   
  5   2   4  ar  
  6   4   5  1   
  7   4   6  ar  
  8   6   7  1   
  9   6   8  ar  
 10   8   9  1   
 11   8  10  ar  
 12  10  11  1   
 13  11  12  1   
 14  11  13  1   
 15  13  14  1   
 16  13  15  2   
 17  15  16  1   
 18  16  17  ar  
 19  16  18  ar  
@<TRIPOS>SUBSTRUCTURE
  1 ****   1 GROUP 4 **** **** 0

# MOE 2019.01 (io_trps.svl 2018.10)
