IPZ
     RDKit          3D

 11 11  0  0  0  0  0  0  0  0999 V2000
   53.1060   30.1707   54.8484 C   0  0  0  0  0  0  0  0  0  0  0  0
   52.7880   30.7602   56.0086 N   0  0  0  0  0  0  0  0  0  0  0  0
   52.7842   29.9902   57.0979 C   0  0  0  0  0  0  0  0  0  0  0  0
   53.0956   28.6307   57.0432 C   0  0  0  0  0  0  0  0  0  0  0  0
   53.4148   28.0202   55.9039 N   0  0  0  0  0  0  0  0  0  0  0  0
   53.4181   28.7945   54.8131 C   0  0  0  0  0  0  0  0  0  0  0  0
   51.8101   31.8189   53.4808 C   0  0  0  0  0  0  0  0  0  0  0  0
   53.1214   31.0217   53.5746 C   0  0  0  0  0  0  0  0  0  0  0  0
   54.3309   31.9703   53.6112 C   0  0  0  0  0  0  0  0  0  0  0  0
   53.7456   28.1898   53.6194 O   0  0  0  0  0  0  0  0  0  0  0  0
   52.7991   27.4069   52.8459 C   0  0  0  0  0  0  0  0  0  0  0  0
  7  8  1  0
  8  9  1  0
  8  1  1  0
  1  2  2  0
  1  6  1  0
  2  3  1  0
  3  4  2  0
  4  5  1  0
  5  6  2  0
  6 10  1  0
 10 11  1  0
M  END
>  <minimizedAffinity>  (1) 
-3.67047

$$$$
