IPZ
     RDKit          3D

 11 11  0  0  0  0  0  0  0  0999 V2000
   43.0036   10.9412   51.6422 C   0  0  0  0  0  0  0  0  0  0  0  0
   41.9164   10.1837   51.4452 N   0  0  0  0  0  0  0  0  0  0  0  0
   42.0977    8.8626   51.4076 C   0  0  0  0  0  0  0  0  0  0  0  0
   43.3584    8.2847   51.5650 C   0  0  0  0  0  0  0  0  0  0  0  0
   44.4547    9.0140   51.7619 N   0  0  0  0  0  0  0  0  0  0  0  0
   44.2703   10.3384   51.7995 C   0  0  0  0  0  0  0  0  0  0  0  0
   41.7452   12.8868   50.6951 C   0  0  0  0  0  0  0  0  0  0  0  0
   42.8365   12.4633   51.6917 C   0  0  0  0  0  0  0  0  0  0  0  0
   42.4598   12.8875   53.1207 C   0  0  0  0  0  0  0  0  0  0  0  0
   45.3874   11.1186   52.0028 O   0  0  0  0  0  0  0  0  0  0  0  0
   46.5398   10.6644   52.7596 C   0  0  0  0  0  0  0  0  0  0  0  0
  7  8  1  0
  8  9  1  0
  8  1  1  0
  1  2  2  0
  1  6  1  0
  2  3  1  0
  3  4  2  0
  4  5  1  0
  5  6  2  0
  6 10  1  0
 10 11  1  0
M  END
>  <minimizedAffinity>  (1) 
-3.68251

$$$$
