IPZ
     RDKit          3D

 11 11  0  0  0  0  0  0  0  0999 V2000
   58.3843   16.0481   53.1747 C   0  0  0  0  0  0  0  0  0  0  0  0
   57.0847   15.9612   53.4879 N   0  0  0  0  0  0  0  0  0  0  0  0
   56.6281   14.7611   53.8498 C   0  0  0  0  0  0  0  0  0  0  0  0
   57.4578   13.6398   53.9031 C   0  0  0  0  0  0  0  0  0  0  0  0
   58.7521   13.6985   53.5971 N   0  0  0  0  0  0  0  0  0  0  0  0
   59.2076   14.9030   53.2347 C   0  0  0  0  0  0  0  0  0  0  0  0
   58.8173   17.5633   51.2297 C   0  0  0  0  0  0  0  0  0  0  0  0
   58.9467   17.4096   52.7540 C   0  0  0  0  0  0  0  0  0  0  0  0
   58.1750   18.5247   53.4786 C   0  0  0  0  0  0  0  0  0  0  0  0
   60.5440   14.9940   52.9130 O   0  0  0  0  0  0  0  0  0  0  0  0
   61.6000   14.9451   53.9078 C   0  0  0  0  0  0  0  0  0  0  0  0
  7  8  1  0
  8  9  1  0
  8  1  1  0
  1  2  2  0
  1  6  1  0
  2  3  1  0
  3  4  2  0
  4  5  1  0
  5  6  2  0
  6 10  1  0
 10 11  1  0
M  END
>  <minimizedAffinity>  (1) 
-3.75762

$$$$
