IPZ
     RDKit          3D

 11 11  0  0  0  0  0  0  0  0999 V2000
   58.9923   14.5926   36.3374 C   0  0  0  0  0  0  0  0  0  0  0  0
   58.0679   14.6055   37.3070 N   0  0  0  0  0  0  0  0  0  0  0  0
   58.5106   14.6257   38.5653 C   0  0  0  0  0  0  0  0  0  0  0  0
   59.8728   14.6329   38.8696 C   0  0  0  0  0  0  0  0  0  0  0  0
   60.8117   14.6204   37.9258 N   0  0  0  0  0  0  0  0  0  0  0  0
   60.3653   14.6004   36.6649 C   0  0  0  0  0  0  0  0  0  0  0  0
   58.4691   13.1140   34.3865 C   0  0  0  0  0  0  0  0  0  0  0  0
   58.5236   14.5694   34.8791 C   0  0  0  0  0  0  0  0  0  0  0  0
   57.1376   15.2274   34.7796 C   0  0  0  0  0  0  0  0  0  0  0  0
   61.3148   14.5879   35.6668 O   0  0  0  0  0  0  0  0  0  0  0  0
   62.1288   13.4241   35.3670 C   0  0  0  0  0  0  0  0  0  0  0  0
  7  8  1  0
  8  9  1  0
  8  1  1  0
  1  2  2  0
  1  6  1  0
  2  3  1  0
  3  4  2  0
  4  5  1  0
  5  6  2  0
  6 10  1  0
 10 11  1  0
M  END
>  <minimizedAffinity>  (1) 
-3.95589

$$$$
