IPZ
     RDKit          3D

 11 11  0  0  0  0  0  0  0  0999 V2000
   41.2513   11.4612   52.2373 C   0  0  0  0  0  0  0  0  0  0  0  0
   40.3082   12.3222   52.6420 N   0  0  0  0  0  0  0  0  0  0  0  0
   39.3738   11.8516   53.4698 C   0  0  0  0  0  0  0  0  0  0  0  0
   39.3692   10.5241   53.9010 C   0  0  0  0  0  0  0  0  0  0  0  0
   40.2941    9.6481   53.5142 N   0  0  0  0  0  0  0  0  0  0  0  0
   41.2300   10.1225   52.6844 C   0  0  0  0  0  0  0  0  0  0  0  0
   41.7478   13.0288   50.3498 C   0  0  0  0  0  0  0  0  0  0  0  0
   42.3420   11.9638   51.2860 C   0  0  0  0  0  0  0  0  0  0  0  0
   43.5022   12.5503   52.1069 C   0  0  0  0  0  0  0  0  0  0  0  0
   42.2010    9.2384   52.2679 O   0  0  0  0  0  0  0  0  0  0  0  0
   41.9416    7.8269   52.0499 C   0  0  0  0  0  0  0  0  0  0  0  0
  7  8  1  0
  8  9  1  0
  8  1  1  0
  1  2  2  0
  1  6  1  0
  2  3  1  0
  3  4  2  0
  4  5  1  0
  5  6  2  0
  6 10  1  0
 10 11  1  0
M  END
>  <minimizedAffinity>  (1) 
-3.75769

$$$$
