IPZ
     RDKit          3D

 11 11  0  0  0  0  0  0  0  0999 V2000
   59.9659   14.0556   37.2844 C   0  0  0  0  0  0  0  0  0  0  0  0
   61.0138   14.5613   37.9485 N   0  0  0  0  0  0  0  0  0  0  0  0
   62.1615   14.6688   37.2770 C   0  0  0  0  0  0  0  0  0  0  0  0
   62.2769   14.2751   35.9428 C   0  0  0  0  0  0  0  0  0  0  0  0
   61.2519   13.7697   35.2600 N   0  0  0  0  0  0  0  0  0  0  0  0
   60.1021   13.6632   35.9354 C   0  0  0  0  0  0  0  0  0  0  0  0
   58.8528   13.1507   39.3358 C   0  0  0  0  0  0  0  0  0  0  0  0
   58.6300   13.9163   38.0213 C   0  0  0  0  0  0  0  0  0  0  0  0
   58.0542   15.3145   38.2994 C   0  0  0  0  0  0  0  0  0  0  0  0
   59.0235   13.1440   35.2536 O   0  0  0  0  0  0  0  0  0  0  0  0
   58.5674   13.6707   33.9801 C   0  0  0  0  0  0  0  0  0  0  0  0
  7  8  1  0
  8  9  1  0
  8  1  1  0
  1  2  2  0
  1  6  1  0
  2  3  1  0
  3  4  2  0
  4  5  1  0
  5  6  2  0
  6 10  1  0
 10 11  1  0
M  END
>  <minimizedAffinity>  (1) 
-3.76486

$$$$
