IPZ
     RDKit          3D

 11 11  0  0  0  0  0  0  0  0999 V2000
   53.5297   29.9681   53.7276 C   0  0  0  0  0  0  0  0  0  0  0  0
   52.2747   30.3841   53.5123 N   0  0  0  0  0  0  0  0  0  0  0  0
   52.0945   31.6925   53.3241 C   0  0  0  0  0  0  0  0  0  0  0  0
   53.1580   32.5962   53.3487 C   0  0  0  0  0  0  0  0  0  0  0  0
   54.4141   32.2094   53.5606 N   0  0  0  0  0  0  0  0  0  0  0  0
   54.5923   30.8970   53.7487 C   0  0  0  0  0  0  0  0  0  0  0  0
   53.4771   28.1186   55.4138 C   0  0  0  0  0  0  0  0  0  0  0  0
   53.7776   28.4724   53.9481 C   0  0  0  0  0  0  0  0  0  0  0  0
   52.8784   27.6625   52.9997 C   0  0  0  0  0  0  0  0  0  0  0  0
   55.8825   30.4676   53.9696 O   0  0  0  0  0  0  0  0  0  0  0  0
   56.5704   30.6539   55.2341 C   0  0  0  0  0  0  0  0  0  0  0  0
  7  8  1  0
  8  9  1  0
  8  1  1  0
  1  2  2  0
  1  6  1  0
  2  3  1  0
  3  4  2  0
  4  5  1  0
  5  6  2  0
  6 10  1  0
 10 11  1  0
M  END
>  <minimizedAffinity>  (1) 
-3.85437

$$$$
