IPZ
     RDKit          3D

 11 11  0  0  0  0  0  0  0  0999 V2000
   58.3393   13.3901   33.2663 C   0  0  0  0  0  0  0  0  0  0  0  0
   59.0239   13.7984   34.3429 N   0  0  0  0  0  0  0  0  0  0  0  0
   58.4461   14.7213   35.1137 C   0  0  0  0  0  0  0  0  0  0  0  0
   57.1858   15.2451   34.8211 C   0  0  0  0  0  0  0  0  0  0  0  0
   56.4845   14.8571   33.7580 N   0  0  0  0  0  0  0  0  0  0  0  0
   57.0659   13.9313   32.9870 C   0  0  0  0  0  0  0  0  0  0  0  0
   60.4212   12.7287   32.0439 C   0  0  0  0  0  0  0  0  0  0  0  0
   58.9694   12.3310   32.3562 C   0  0  0  0  0  0  0  0  0  0  0  0
   58.9209   10.9636   33.0575 C   0  0  0  0  0  0  0  0  0  0  0  0
   56.3627   13.5100   31.8798 O   0  0  0  0  0  0  0  0  0  0  0  0
   54.9836   13.8878   31.6303 C   0  0  0  0  0  0  0  0  0  0  0  0
  7  8  1  0
  8  9  1  0
  8  1  1  0
  1  2  2  0
  1  6  1  0
  2  3  1  0
  3  4  2  0
  4  5  1  0
  5  6  2  0
  6 10  1  0
 10 11  1  0
M  END
>  <minimizedAffinity>  (1) 
-4.27839

$$$$
