IPZ
     RDKit          3D

 11 11  0  0  0  0  0  0  0  0999 V2000
   60.5500   13.0356   40.1692 C   0  0  0  0  0  0  0  0  0  0  0  0
   59.4836   12.3133   39.8010 N   0  0  0  0  0  0  0  0  0  0  0  0
   58.6157   12.8948   38.9713 C   0  0  0  0  0  0  0  0  0  0  0  0
   58.8001   14.1963   38.5021 C   0  0  0  0  0  0  0  0  0  0  0  0
   59.8504   14.9356   38.8523 N   0  0  0  0  0  0  0  0  0  0  0  0
   60.7194   14.3502   39.6840 C   0  0  0  0  0  0  0  0  0  0  0  0
   60.8344   11.8238   42.3411 C   0  0  0  0  0  0  0  0  0  0  0  0
   61.5698   12.4026   41.1213 C   0  0  0  0  0  0  0  0  0  0  0  0
   62.3414   11.2988   40.3796 C   0  0  0  0  0  0  0  0  0  0  0  0
   61.8169   15.0916   40.0630 O   0  0  0  0  0  0  0  0  0  0  0  0
   63.0123   15.2049   39.2474 C   0  0  0  0  0  0  0  0  0  0  0  0
  7  8  1  0
  8  9  1  0
  8  1  1  0
  1  2  2  0
  1  6  1  0
  2  3  1  0
  3  4  2  0
  4  5  1  0
  5  6  2  0
  6 10  1  0
 10 11  1  0
M  END
>  <minimizedAffinity>  (1) 
-3.77735

$$$$
