IPZ


 11 11  0  0  0  0  0  0  0  0999 V2000
   49.4079   24.4375   40.1650 C   0  0  0  0  0  0  0  0  0  0  0  0
   49.8267   25.2279   39.1678 N   0  0  0  0  0  0  0  0  0  0  0  0
   51.1272   25.1926   38.8727 C   0  0  0  0  0  0  0  0  0  0  0  0
   52.0203   24.3733   39.5651 C   0  0  0  0  0  0  0  0  0  0  0  0
   51.6306   23.5787   40.5596 N   0  0  0  0  0  0  0  0  0  0  0  0
   50.3261   23.6156   40.8534 C   0  0  0  0  0  0  0  0  0  0  0  0
   47.4014   25.8963   40.5000 C   0  0  0  0  0  0  0  0  0  0  0  0
   47.9210   24.4497   40.5340 C   0  0  0  0  0  0  0  0  0  0  0  0
   47.1431   23.5710   39.5407 C   0  0  0  0  0  0  0  0  0  0  0  0
   49.8938   22.8027   41.8782 O   0  0  0  0  0  0  0  0  0  0  0  0
   50.7774   21.9045   42.5989 C   0  0  0  0  0  0  0  0  0  0  0  0
  7  8  1  0  0  0
  8  9  1  0  0  0
  8  1  1  0  0  0
  1  2  2  0  0  0
  1  6  1  0  0  0
  2  3  1  0  0  0
  3  4  2  0  0  0
  4  5  1  0  0  0
  5  6  2  0  0  0
  6 10  1  0  0  0
 10 11  1  0  0  0
M  END
> <minimizedAffinity>
-5.67985

$$$$
IPZ


 11 11  0  0  0  0  0  0  0  0999 V2000
   50.3878   23.6059   41.0557 C   0  0  0  0  0  0  0  0  0  0  0  0
   49.0867   23.4807   41.3493 N   0  0  0  0  0  0  0  0  0  0  0  0
   48.2237   24.1261   40.5629 C   0  0  0  0  0  0  0  0  0  0  0  0
   48.6460   24.8997   39.4806 C   0  0  0  0  0  0  0  0  0  0  0  0
   49.9321   25.0409   39.1670 N   0  0  0  0  0  0  0  0  0  0  0  0
   50.7954   24.3926   39.9568 C   0  0  0  0  0  0  0  0  0  0  0  0
   50.8174   22.6747   43.3392 C   0  0  0  0  0  0  0  0  0  0  0  0
   51.4102   22.8797   41.9356 C   0  0  0  0  0  0  0  0  0  0  0  0
   51.7644   21.5280   41.2942 C   0  0  0  0  0  0  0  0  0  0  0  0
   52.1337   24.5199   39.6556 O   0  0  0  0  0  0  0  0  0  0  0  0
   52.7585   23.8395   38.5359 C   0  0  0  0  0  0  0  0  0  0  0  0
  7  8  1  0  0  0
  8  9  1  0  0  0
  8  1  1  0  0  0
  1  2  2  0  0  0
  1  6  1  0  0  0
  2  3  1  0  0  0
  3  4  2  0  0  0
  4  5  1  0  0  0
  5  6  2  0  0  0
  6 10  1  0  0  0
 10 11  1  0  0  0
M  END
> <minimizedAffinity>
-5.65131

$$$$
IPZ


 11 11  0  0  0  0  0  0  0  0999 V2000
   50.0681   23.8767   40.7742 C   0  0  0  0  0  0  0  0  0  0  0  0
   49.7900   23.1177   41.8424 N   0  0  0  0  0  0  0  0  0  0  0  0
   50.6028   22.0870   42.0809 C   0  0  0  0  0  0  0  0  0  0  0  0
   51.6962   21.8029   41.2612 C   0  0  0  0  0  0  0  0  0  0  0  0
   51.9948   22.5406   40.1940 N   0  0  0  0  0  0  0  0  0  0  0  0
   51.1785   23.5736   39.9571 C   0  0  0  0  0  0  0  0  0  0  0  0
   47.9857   24.6015   39.5891 C   0  0  0  0  0  0  0  0  0  0  0  0
   49.1578   25.0700   40.4667 C   0  0  0  0  0  0  0  0  0  0  0  0
   48.6419   25.6692   41.7853 C   0  0  0  0  0  0  0  0  0  0  0  0
   51.4637   24.3555   38.8593 O   0  0  0  0  0  0  0  0  0  0  0  0
   52.4585   23.9900   37.8674 C   0  0  0  0  0  0  0  0  0  0  0  0
  7  8  1  0  0  0
  8  9  1  0  0  0
  8  1  1  0  0  0
  1  2  2  0  0  0
  1  6  1  0  0  0
  2  3  1  0  0  0
  3  4  2  0  0  0
  4  5  1  0  0  0
  5  6  2  0  0  0
  6 10  1  0  0  0
 10 11  1  0  0  0
M  END
> <minimizedAffinity>
-5.57423

$$$$
IPZ


 11 11  0  0  0  0  0  0  0  0999 V2000
   50.6629   23.4681   40.5877 C   0  0  0  0  0  0  0  0  0  0  0  0
   51.7861   23.6868   39.8912 N   0  0  0  0  0  0  0  0  0  0  0  0
   51.7380   24.6248   38.9438 C   0  0  0  0  0  0  0  0  0  0  0  0
   50.5755   25.3513   38.6814 C   0  0  0  0  0  0  0  0  0  0  0  0
   49.4463   25.1539   39.3583 N   0  0  0  0  0  0  0  0  0  0  0  0
   49.4971   24.2131   40.3079 C   0  0  0  0  0  0  0  0  0  0  0  0
   51.8439   21.4287   41.4320 C   0  0  0  0  0  0  0  0  0  0  0  0
   50.6781   22.3986   41.6846 C   0  0  0  0  0  0  0  0  0  0  0  0
   50.8259   23.0783   43.0558 C   0  0  0  0  0  0  0  0  0  0  0  0
   48.3430   23.9875   41.0255 O   0  0  0  0  0  0  0  0  0  0  0  0
   47.2880   24.9762   41.1540 C   0  0  0  0  0  0  0  0  0  0  0  0
  7  8  1  0  0  0
  8  9  1  0  0  0
  8  1  1  0  0  0
  1  2  2  0  0  0
  1  6  1  0  0  0
  2  3  1  0  0  0
  3  4  2  0  0  0
  4  5  1  0  0  0
  5  6  2  0  0  0
  6 10  1  0  0  0
 10 11  1  0  0  0
M  END
> <minimizedAffinity>
-5.22734

$$$$
IPZ


 11 11  0  0  0  0  0  0  0  0999 V2000
   51.0957   23.1593   40.1042 C   0  0  0  0  0  0  0  0  0  0  0  0
   52.1001   22.3716   40.5109 N   0  0  0  0  0  0  0  0  0  0  0  0
   51.8967   21.6536   41.6167 C   0  0  0  0  0  0  0  0  0  0  0  0
   50.6961   21.7127   42.3260 C   0  0  0  0  0  0  0  0  0  0  0  0
   49.6825   22.4868   41.9439 N   0  0  0  0  0  0  0  0  0  0  0  0
   49.8887   23.2055   40.8347 C   0  0  0  0  0  0  0  0  0  0  0  0
   51.3280   25.4889   39.2180 C   0  0  0  0  0  0  0  0  0  0  0  0
   51.2907   23.9996   38.8381 C   0  0  0  0  0  0  0  0  0  0  0  0
   52.5999   23.5833   38.1479 C   0  0  0  0  0  0  0  0  0  0  0  0
   48.8564   24.0154   40.4148 O   0  0  0  0  0  0  0  0  0  0  0  0
   47.6013   23.4936   39.9056 C   0  0  0  0  0  0  0  0  0  0  0  0
  7  8  1  0  0  0
  8  9  1  0  0  0
  8  1  1  0  0  0
  1  2  2  0  0  0
  1  6  1  0  0  0
  2  3  1  0  0  0
  3  4  2  0  0  0
  4  5  1  0  0  0
  5  6  2  0  0  0
  6 10  1  0  0  0
 10 11  1  0  0  0
M  END
> <minimizedAffinity>
-4.89624

$$$$
IPZ


 11 11  0  0  0  0  0  0  0  0999 V2000
   50.8139   23.8887   39.4837 C   0  0  0  0  0  0  0  0  0  0  0  0
   50.2299   25.0177   39.0610 N   0  0  0  0  0  0  0  0  0  0  0  0
   49.0486   25.3263   39.5986 C   0  0  0  0  0  0  0  0  0  0  0  0
   48.4394   24.5168   40.5587 C   0  0  0  0  0  0  0  0  0  0  0  0
   48.9978   23.3901   40.9959 N   0  0  0  0  0  0  0  0  0  0  0  0
   50.1823   23.0830   40.4555 C   0  0  0  0  0  0  0  0  0  0  0  0
   52.2585   24.0125   37.4431 C   0  0  0  0  0  0  0  0  0  0  0  0
   52.1716   23.4998   38.8899 C   0  0  0  0  0  0  0  0  0  0  0  0
   53.2944   24.1056   39.7479 C   0  0  0  0  0  0  0  0  0  0  0  0
   50.7844   21.9225   40.8898 O   0  0  0  0  0  0  0  0  0  0  0  0
   51.3802   21.7879   42.2066 C   0  0  0  0  0  0  0  0  0  0  0  0
  7  8  1  0  0  0
  8  9  1  0  0  0
  8  1  1  0  0  0
  1  2  2  0  0  0
  1  6  1  0  0  0
  2  3  1  0  0  0
  3  4  2  0  0  0
  4  5  1  0  0  0
  5  6  2  0  0  0
  6 10  1  0  0  0
 10 11  1  0  0  0
M  END
> <minimizedAffinity>
-4.79658

$$$$
IPZ


 11 11  0  0  0  0  0  0  0  0999 V2000
   47.8824   25.1571   41.6145 C   0  0  0  0  0  0  0  0  0  0  0  0
   47.0243   25.2460   40.5897 N   0  0  0  0  0  0  0  0  0  0  0  0
   47.1363   24.3312   39.6251 C   0  0  0  0  0  0  0  0  0  0  0  0
   48.1003   23.3228   39.6712 C   0  0  0  0  0  0  0  0  0  0  0  0
   48.9649   23.2119   40.6774 N   0  0  0  0  0  0  0  0  0  0  0  0
   48.8503   24.1301   41.6435 C   0  0  0  0  0  0  0  0  0  0  0  0
   48.6781   27.3950   42.4049 C   0  0  0  0  0  0  0  0  0  0  0  0
   47.7856   26.1896   42.7423 C   0  0  0  0  0  0  0  0  0  0  0  0
   46.3211   26.6284   42.9058 C   0  0  0  0  0  0  0  0  0  0  0  0
   49.7317   24.0396   42.6984 O   0  0  0  0  0  0  0  0  0  0  0  0
   50.7413   23.0012   42.7960 C   0  0  0  0  0  0  0  0  0  0  0  0
  7  8  1  0  0  0
  8  9  1  0  0  0
  8  1  1  0  0  0
  1  2  2  0  0  0
  1  6  1  0  0  0
  2  3  1  0  0  0
  3  4  2  0  0  0
  4  5  1  0  0  0
  5  6  2  0  0  0
  6 10  1  0  0  0
 10 11  1  0  0  0
M  END
> <minimizedAffinity>
-4.61336

$$$$
IPZ


 11 11  0  0  0  0  0  0  0  0999 V2000
   48.8043   24.5963   41.3055 C   0  0  0  0  0  0  0  0  0  0  0  0
   48.9840   25.3297   42.4120 N   0  0  0  0  0  0  0  0  0  0  0  0
   48.0163   26.1908   42.7313 C   0  0  0  0  0  0  0  0  0  0  0  0
   46.8648   26.3298   41.9549 C   0  0  0  0  0  0  0  0  0  0  0  0
   46.6614   25.6138   40.8511 N   0  0  0  0  0  0  0  0  0  0  0  0
   47.6329   24.7509   40.5332 C   0  0  0  0  0  0  0  0  0  0  0  0
   50.8988   24.2870   39.9700 C   0  0  0  0  0  0  0  0  0  0  0  0
   49.8933   23.5958   40.9053 C   0  0  0  0  0  0  0  0  0  0  0  0
   50.5974   23.0774   42.1700 C   0  0  0  0  0  0  0  0  0  0  0  0
   47.4492   23.9954   39.3960 O   0  0  0  0  0  0  0  0  0  0  0  0
   46.6625   22.7756   39.3777 C   0  0  0  0  0  0  0  0  0  0  0  0
  7  8  1  0  0  0
  8  9  1  0  0  0
  8  1  1  0  0  0
  1  2  2  0  0  0
  1  6  1  0  0  0
  2  3  1  0  0  0
  3  4  2  0  0  0
  4  5  1  0  0  0
  5  6  2  0  0  0
  6 10  1  0  0  0
 10 11  1  0  0  0
M  END
> <minimizedAffinity>
-4.59204

$$$$
IPZ


 11 11  0  0  0  0  0  0  0  0999 V2000
   49.2431   23.7630   40.9273 C   0  0  0  0  0  0  0  0  0  0  0  0
   48.6661   22.7240   40.3089 N   0  0  0  0  0  0  0  0  0  0  0  0
   47.4436   22.9184   39.8114 C   0  0  0  0  0  0  0  0  0  0  0  0
   46.7859   24.1443   39.9245 C   0  0  0  0  0  0  0  0  0  0  0  0
   47.3362   25.1923   40.5338 N   0  0  0  0  0  0  0  0  0  0  0  0
   48.5621   24.9950   41.0315 C   0  0  0  0  0  0  0  0  0  0  0  0
   50.7016   22.2584   42.2966 C   0  0  0  0  0  0  0  0  0  0  0  0
   50.6472   23.5794   41.5120 C   0  0  0  0  0  0  0  0  0  0  0  0
   51.6770   23.5745   40.3704 C   0  0  0  0  0  0  0  0  0  0  0  0
   49.1570   26.0627   41.6671 O   0  0  0  0  0  0  0  0  0  0  0  0
   48.4149   27.0127   42.4757 C   0  0  0  0  0  0  0  0  0  0  0  0
  7  8  1  0  0  0
  8  9  1  0  0  0
  8  1  1  0  0  0
  1  2  2  0  0  0
  1  6  1  0  0  0
  2  3  1  0  0  0
  3  4  2  0  0  0
  4  5  1  0  0  0
  5  6  2  0  0  0
  6 10  1  0  0  0
 10 11  1  0  0  0
M  END
> <minimizedAffinity>
-4.41912

$$$$
IPZ


 11 11  0  0  0  0  0  0  0  0999 V2000
   49.6577   23.5283   40.5566 C   0  0  0  0  0  0  0  0  0  0  0  0
   50.6024   22.6062   40.3289 N   0  0  0  0  0  0  0  0  0  0  0  0
   51.2750   22.1541   41.3886 C   0  0  0  0  0  0  0  0  0  0  0  0
   51.0150   22.6142   42.6805 C   0  0  0  0  0  0  0  0  0  0  0  0
   50.0824   23.5297   42.9343 N   0  0  0  0  0  0  0  0  0  0  0  0
   49.4090   23.9812   41.8702 C   0  0  0  0  0  0  0  0  0  0  0  0
   47.3672   23.7917   39.5818 C   0  0  0  0  0  0  0  0  0  0  0  0
   48.8631   24.0723   39.3650 C   0  0  0  0  0  0  0  0  0  0  0  0
   49.1174   25.5827   39.2309 C   0  0  0  0  0  0  0  0  0  0  0  0
   48.4368   24.9290   42.1029 O   0  0  0  0  0  0  0  0  0  0  0  0
   48.6368   26.0643   42.9850 C   0  0  0  0  0  0  0  0  0  0  0  0
  7  8  1  0  0  0
  8  9  1  0  0  0
  8  1  1  0  0  0
  1  2  2  0  0  0
  1  6  1  0  0  0
  2  3  1  0  0  0
  3  4  2  0  0  0
  4  5  1  0  0  0
  5  6  2  0  0  0
  6 10  1  0  0  0
 10 11  1  0  0  0
M  END
> <minimizedAffinity>
-4.41601

$$$$
IPZ


 11 11  0  0  0  0  0  0  0  0999 V2000
   58.3393   13.3901   33.2663 C   0  0  0  0  0  0  0  0  0  0  0  0
   59.0239   13.7984   34.3429 N   0  0  0  0  0  0  0  0  0  0  0  0
   58.4461   14.7213   35.1137 C   0  0  0  0  0  0  0  0  0  0  0  0
   57.1858   15.2451   34.8211 C   0  0  0  0  0  0  0  0  0  0  0  0
   56.4845   14.8571   33.7580 N   0  0  0  0  0  0  0  0  0  0  0  0
   57.0659   13.9313   32.9870 C   0  0  0  0  0  0  0  0  0  0  0  0
   60.4212   12.7287   32.0439 C   0  0  0  0  0  0  0  0  0  0  0  0
   58.9694   12.3310   32.3562 C   0  0  0  0  0  0  0  0  0  0  0  0
   58.9209   10.9636   33.0575 C   0  0  0  0  0  0  0  0  0  0  0  0
   56.3627   13.5100   31.8798 O   0  0  0  0  0  0  0  0  0  0  0  0
   54.9836   13.8878   31.6303 C   0  0  0  0  0  0  0  0  0  0  0  0
  7  8  1  0  0  0
  8  9  1  0  0  0
  8  1  1  0  0  0
  1  2  2  0  0  0
  1  6  1  0  0  0
  2  3  1  0  0  0
  3  4  2  0  0  0
  4  5  1  0  0  0
  5  6  2  0  0  0
  6 10  1  0  0  0
 10 11  1  0  0  0
M  END
> <minimizedAffinity>
-4.27839

$$$$
IPZ


 11 11  0  0  0  0  0  0  0  0999 V2000
   41.2371   12.1921   52.4119 C   0  0  0  0  0  0  0  0  0  0  0  0
   39.9335   11.8931   52.3343 N   0  0  0  0  0  0  0  0  0  0  0  0
   39.2227   11.9875   53.4593 C   0  0  0  0  0  0  0  0  0  0  0  0
   39.8006   12.3787   54.6681 C   0  0  0  0  0  0  0  0  0  0  0  0
   41.0929   12.6811   54.7728 N   0  0  0  0  0  0  0  0  0  0  0  0
   41.8034   12.5860   53.6434 C   0  0  0  0  0  0  0  0  0  0  0  0
   41.8872   10.7127   50.5000 C   0  0  0  0  0  0  0  0  0  0  0  0
   42.0873   12.0957   51.1411 C   0  0  0  0  0  0  0  0  0  0  0  0
   41.6731   13.2101   50.1662 C   0  0  0  0  0  0  0  0  0  0  0  0
   43.1439   12.8938   53.7215 O   0  0  0  0  0  0  0  0  0  0  0  0
   44.1220   12.0105   54.3299 C   0  0  0  0  0  0  0  0  0  0  0  0
  7  8  1  0  0  0
  8  9  1  0  0  0
  8  1  1  0  0  0
  1  2  2  0  0  0
  1  6  1  0  0  0
  2  3  1  0  0  0
  3  4  2  0  0  0
  4  5  1  0  0  0
  5  6  2  0  0  0
  6 10  1  0  0  0
 10 11  1  0  0  0
M  END
> <minimizedAffinity>
-4.21096

$$$$
IPZ


 11 11  0  0  0  0  0  0  0  0999 V2000
   58.2653   14.3834   35.7405 C   0  0  0  0  0  0  0  0  0  0  0  0
   57.4275   15.4158   35.5772 N   0  0  0  0  0  0  0  0  0  0  0  0
   56.7740   15.4875   34.4164 C   0  0  0  0  0  0  0  0  0  0  0  0
   56.9477   14.5356   33.4104 C   0  0  0  0  0  0  0  0  0  0  0  0
   57.7737   13.5004   33.5468 N   0  0  0  0  0  0  0  0  0  0  0  0
   58.4275   13.4306   34.7117 C   0  0  0  0  0  0  0  0  0  0  0  0
   60.4788   14.7494   36.8509 C   0  0  0  0  0  0  0  0  0  0  0  0
   59.0344   14.2661   37.0603 C   0  0  0  0  0  0  0  0  0  0  0  0
   58.3310   15.1103   38.1357 C   0  0  0  0  0  0  0  0  0  0  0  0
   59.2890   12.3690   34.8814 O   0  0  0  0  0  0  0  0  0  0  0  0
   58.8496   10.9857   34.8617 C   0  0  0  0  0  0  0  0  0  0  0  0
  7  8  1  0  0  0
  8  9  1  0  0  0
  8  1  1  0  0  0
  1  2  2  0  0  0
  1  6  1  0  0  0
  2  3  1  0  0  0
  3  4  2  0  0  0
  4  5  1  0  0  0
  5  6  2  0  0  0
  6 10  1  0  0  0
 10 11  1  0  0  0
M  END
> <minimizedAffinity>
-4.19627

$$$$
IPZ


 11 11  0  0  0  0  0  0  0  0999 V2000
   57.6517   13.5210   33.6062 C   0  0  0  0  0  0  0  0  0  0  0  0
   57.0687   14.6537   34.0206 N   0  0  0  0  0  0  0  0  0  0  0  0
   57.4442   15.1281   35.2095 C   0  0  0  0  0  0  0  0  0  0  0  0
   58.4000   14.4818   35.9949 C   0  0  0  0  0  0  0  0  0  0  0  0
   58.9944   13.3554   35.6071 N   0  0  0  0  0  0  0  0  0  0  0  0
   58.6164   12.8819   34.4145 C   0  0  0  0  0  0  0  0  0  0  0  0
   55.8741   13.5073   31.8438 C   0  0  0  0  0  0  0  0  0  0  0  0
   57.2471   12.9444   32.2458 C   0  0  0  0  0  0  0  0  0  0  0  0
   58.3116   13.3138   31.1997 C   0  0  0  0  0  0  0  0  0  0  0  0
   59.2157   11.7175   33.9868 O   0  0  0  0  0  0  0  0  0  0  0  0
   59.3653   10.5494   34.8354 C   0  0  0  0  0  0  0  0  0  0  0  0
  7  8  1  0  0  0
  8  9  1  0  0  0
  8  1  1  0  0  0
  1  2  2  0  0  0
  1  6  1  0  0  0
  2  3  1  0  0  0
  3  4  2  0  0  0
  4  5  1  0  0  0
  5  6  2  0  0  0
  6 10  1  0  0  0
 10 11  1  0  0  0
M  END
> <minimizedAffinity>
-4.17808

$$$$
IPZ


 11 11  0  0  0  0  0  0  0  0999 V2000
   58.5434   14.3822   36.3561 C   0  0  0  0  0  0  0  0  0  0  0  0
   57.4309   14.9733   35.9006 N   0  0  0  0  0  0  0  0  0  0  0  0
   57.1945   14.8906   34.5903 C   0  0  0  0  0  0  0  0  0  0  0  0
   58.0602   14.2213   33.7237 C   0  0  0  0  0  0  0  0  0  0  0  0
   59.1719   13.6258   34.1500 N   0  0  0  0  0  0  0  0  0  0  0  0
   59.4067   13.7098   35.4643 C   0  0  0  0  0  0  0  0  0  0  0  0
   57.9380   15.5057   38.5095 C   0  0  0  0  0  0  0  0  0  0  0  0
   58.8501   14.4551   37.8553 C   0  0  0  0  0  0  0  0  0  0  0  0
   58.6249   13.0722   38.4885 C   0  0  0  0  0  0  0  0  0  0  0  0
   60.5500   13.1018   35.9343 O   0  0  0  0  0  0  0  0  0  0  0  0
   60.8062   11.6808   35.7853 C   0  0  0  0  0  0  0  0  0  0  0  0
  7  8  1  0  0  0
  8  9  1  0  0  0
  8  1  1  0  0  0
  1  2  2  0  0  0
  1  6  1  0  0  0
  2  3  1  0  0  0
  3  4  2  0  0  0
  4  5  1  0  0  0
  5  6  2  0  0  0
  6 10  1  0  0  0
 10 11  1  0  0  0
M  END
> <minimizedAffinity>
-4.14831

$$$$
IPZ


 11 11  0  0  0  0  0  0  0  0999 V2000
   41.9390   12.2111   52.3990 C   0  0  0  0  0  0  0  0  0  0  0  0
   43.2627   12.2478   52.6013 N   0  0  0  0  0  0  0  0  0  0  0  0
   43.6786   12.4975   53.8441 C   0  0  0  0  0  0  0  0  0  0  0  0
   42.7839   12.7127   54.8936 C   0  0  0  0  0  0  0  0  0  0  0  0
   41.4644   12.6820   54.7200 N   0  0  0  0  0  0  0  0  0  0  0  0
   41.0499   12.4311   53.4731 C   0  0  0  0  0  0  0  0  0  0  0  0
   41.7310   13.1308   50.0801 C   0  0  0  0  0  0  0  0  0  0  0  0
   41.4219   11.9270   50.9851 C   0  0  0  0  0  0  0  0  0  0  0  0
   42.0945   10.6550   50.4435 C   0  0  0  0  0  0  0  0  0  0  0  0
   39.6888   12.3924   53.2636 O   0  0  0  0  0  0  0  0  0  0  0  0
   38.7309   12.1949   54.3362 C   0  0  0  0  0  0  0  0  0  0  0  0
  7  8  1  0  0  0
  8  9  1  0  0  0
  8  1  1  0  0  0
  1  2  2  0  0  0
  1  6  1  0  0  0
  2  3  1  0  0  0
  3  4  2  0  0  0
  4  5  1  0  0  0
  5  6  2  0  0  0
  6 10  1  0  0  0
 10 11  1  0  0  0
M  END
> <minimizedAffinity>
-4.10468

$$$$
IPZ


 11 11  0  0  0  0  0  0  0  0999 V2000
   59.0573   13.3072   36.3125 C   0  0  0  0  0  0  0  0  0  0  0  0
   59.2390   12.7129   37.4993 N   0  0  0  0  0  0  0  0  0  0  0  0
   58.9086   13.4146   38.5847 C   0  0  0  0  0  0  0  0  0  0  0  0
   58.3961   14.7101   38.4996 C   0  0  0  0  0  0  0  0  0  0  0  0
   58.2058   15.3237   37.3335 N   0  0  0  0  0  0  0  0  0  0  0  0
   58.5376   14.6179   36.2466 C   0  0  0  0  0  0  0  0  0  0  0  0
   60.9149   12.7487   34.7303 C   0  0  0  0  0  0  0  0  0  0  0  0
   59.4249   12.5336   35.0422 C   0  0  0  0  0  0  0  0  0  0  0  0
   59.1250   11.0402   35.2514 C   0  0  0  0  0  0  0  0  0  0  0  0
   58.3505   15.2275   35.0254 O   0  0  0  0  0  0  0  0  0  0  0  0
   57.0446   15.3752   34.4092 C   0  0  0  0  0  0  0  0  0  0  0  0
  7  8  1  0  0  0
  8  9  1  0  0  0
  8  1  1  0  0  0
  1  2  2  0  0  0
  1  6  1  0  0  0
  2  3  1  0  0  0
  3  4  2  0  0  0
  4  5  1  0  0  0
  5  6  2  0  0  0
  6 10  1  0  0  0
 10 11  1  0  0  0
M  END
> <minimizedAffinity>
-4.05055

$$$$
IPZ


 11 11  0  0  0  0  0  0  0  0999 V2000
   58.2240   13.4696   33.7007 C   0  0  0  0  0  0  0  0  0  0  0  0
   57.0817   13.6744   33.0315 N   0  0  0  0  0  0  0  0  0  0  0  0
   56.3494   14.7294   33.3924 C   0  0  0  0  0  0  0  0  0  0  0  0
   56.7456   15.5876   34.4194 C   0  0  0  0  0  0  0  0  0  0  0  0
   57.8753   15.4070   35.1002 N   0  0  0  0  0  0  0  0  0  0  0  0
   58.6079   14.3486   34.7363 C   0  0  0  0  0  0  0  0  0  0  0  0
   58.3081   10.9711   33.5714 C   0  0  0  0  0  0  0  0  0  0  0  0
   59.0930   12.2680   33.3155 C   0  0  0  0  0  0  0  0  0  0  0  0
   59.4872   12.3796   31.8336 C   0  0  0  0  0  0  0  0  0  0  0  0
   59.7833   14.1371   35.4231 O   0  0  0  0  0  0  0  0  0  0  0  0
   60.0055   14.6199   36.7739 C   0  0  0  0  0  0  0  0  0  0  0  0
  7  8  1  0  0  0
  8  9  1  0  0  0
  8  1  1  0  0  0
  1  2  2  0  0  0
  1  6  1  0  0  0
  2  3  1  0  0  0
  3  4  2  0  0  0
  4  5  1  0  0  0
  5  6  2  0  0  0
  6 10  1  0  0  0
 10 11  1  0  0  0
M  END
> <minimizedAffinity>
-3.99181

$$$$
IPZ


 11 11  0  0  0  0  0  0  0  0999 V2000
   58.6826   13.5651   34.7441 C   0  0  0  0  0  0  0  0  0  0  0  0
   58.1179   13.5195   33.5302 N   0  0  0  0  0  0  0  0  0  0  0  0
   57.1305   14.3835   33.2889 C   0  0  0  0  0  0  0  0  0  0  0  0
   56.6970   15.2978   34.2503 C   0  0  0  0  0  0  0  0  0  0  0  0
   57.2405   15.3641   35.4638 N   0  0  0  0  0  0  0  0  0  0  0  0
   58.2306   14.4970   35.7032 C   0  0  0  0  0  0  0  0  0  0  0  0
   59.2391   11.1790   35.2570 C   0  0  0  0  0  0  0  0  0  0  0  0
   59.8201   12.5887   35.0598 C   0  0  0  0  0  0  0  0  0  0  0  0
   60.8352   12.5999   33.9050 C   0  0  0  0  0  0  0  0  0  0  0  0
   58.8127   14.5432   36.9510 O   0  0  0  0  0  0  0  0  0  0  0  0
   58.1841   15.1843   38.0915 C   0  0  0  0  0  0  0  0  0  0  0  0
  7  8  1  0  0  0
  8  9  1  0  0  0
  8  1  1  0  0  0
  1  2  2  0  0  0
  1  6  1  0  0  0
  2  3  1  0  0  0
  3  4  2  0  0  0
  4  5  1  0  0  0
  5  6  2  0  0  0
  6 10  1  0  0  0
 10 11  1  0  0  0
M  END
> <minimizedAffinity>
-3.95608

$$$$
IPZ


 11 11  0  0  0  0  0  0  0  0999 V2000
   58.9923   14.5926   36.3374 C   0  0  0  0  0  0  0  0  0  0  0  0
   58.0679   14.6055   37.3070 N   0  0  0  0  0  0  0  0  0  0  0  0
   58.5106   14.6257   38.5653 C   0  0  0  0  0  0  0  0  0  0  0  0
   59.8728   14.6329   38.8696 C   0  0  0  0  0  0  0  0  0  0  0  0
   60.8117   14.6204   37.9258 N   0  0  0  0  0  0  0  0  0  0  0  0
   60.3653   14.6004   36.6649 C   0  0  0  0  0  0  0  0  0  0  0  0
   58.4691   13.1140   34.3865 C   0  0  0  0  0  0  0  0  0  0  0  0
   58.5236   14.5694   34.8791 C   0  0  0  0  0  0  0  0  0  0  0  0
   57.1376   15.2274   34.7796 C   0  0  0  0  0  0  0  0  0  0  0  0
   61.3148   14.5879   35.6668 O   0  0  0  0  0  0  0  0  0  0  0  0
   62.1288   13.4241   35.3670 C   0  0  0  0  0  0  0  0  0  0  0  0
  7  8  1  0  0  0
  8  9  1  0  0  0
  8  1  1  0  0  0
  1  2  2  0  0  0
  1  6  1  0  0  0
  2  3  1  0  0  0
  3  4  2  0  0  0
  4  5  1  0  0  0
  5  6  2  0  0  0
  6 10  1  0  0  0
 10 11  1  0  0  0
M  END
> <minimizedAffinity>
-3.95589

$$$$
IPZ


 11 11  0  0  0  0  0  0  0  0999 V2000
   54.3246   28.8280   54.9154 C   0  0  0  0  0  0  0  0  0  0  0  0
   53.5255   28.6418   55.9743 N   0  0  0  0  0  0  0  0  0  0  0  0
   54.1180   28.4730   57.1576 C   0  0  0  0  0  0  0  0  0  0  0  0
   55.5066   28.4877   57.2977 C   0  0  0  0  0  0  0  0  0  0  0  0
   56.3233   28.6706   56.2624 N   0  0  0  0  0  0  0  0  0  0  0  0
   55.7268   28.8399   55.0770 C   0  0  0  0  0  0  0  0  0  0  0  0
   52.9288   27.7455   53.1416 C   0  0  0  0  0  0  0  0  0  0  0  0
   53.6819   29.0256   53.5387 C   0  0  0  0  0  0  0  0  0  0  0  0
   52.7212   30.2248   53.5932 C   0  0  0  0  0  0  0  0  0  0  0  0
   56.5473   29.0322   53.9872 O   0  0  0  0  0  0  0  0  0  0  0  0
   57.6423   29.9852   53.9825 C   0  0  0  0  0  0  0  0  0  0  0  0
  7  8  1  0  0  0
  8  9  1  0  0  0
  8  1  1  0  0  0
  1  2  2  0  0  0
  1  6  1  0  0  0
  2  3  1  0  0  0
  3  4  2  0  0  0
  4  5  1  0  0  0
  5  6  2  0  0  0
  6 10  1  0  0  0
 10 11  1  0  0  0
M  END
> <minimizedAffinity>
-3.89917

$$$$
IPZ


 11 11  0  0  0  0  0  0  0  0999 V2000
   43.0116   11.8605   52.0915 C   0  0  0  0  0  0  0  0  0  0  0  0
   43.2654   10.8874   51.2066 N   0  0  0  0  0  0  0  0  0  0  0  0
   44.3182   10.1056   51.4518 C   0  0  0  0  0  0  0  0  0  0  0  0
   45.1258   10.2845   52.5761 C   0  0  0  0  0  0  0  0  0  0  0  0
   44.8960   11.2433   53.4706 N   0  0  0  0  0  0  0  0  0  0  0  0
   43.8396   12.0257   53.2226 C   0  0  0  0  0  0  0  0  0  0  0  0
   41.6744   13.0428   50.3364 C   0  0  0  0  0  0  0  0  0  0  0  0
   41.8109   12.7796   51.8449 C   0  0  0  0  0  0  0  0  0  0  0  0
   40.5392   12.1141   52.3962 C   0  0  0  0  0  0  0  0  0  0  0  0
   43.5770   13.0265   54.1322 O   0  0  0  0  0  0  0  0  0  0  0  0
   42.9460   12.7801   55.4160 C   0  0  0  0  0  0  0  0  0  0  0  0
  7  8  1  0  0  0
  8  9  1  0  0  0
  8  1  1  0  0  0
  1  2  2  0  0  0
  1  6  1  0  0  0
  2  3  1  0  0  0
  3  4  2  0  0  0
  4  5  1  0  0  0
  5  6  2  0  0  0
  6 10  1  0  0  0
 10 11  1  0  0  0
M  END
> <minimizedAffinity>
-3.89194

$$$$
IPZ


 11 11  0  0  0  0  0  0  0  0999 V2000
   32.2193   17.3613   45.5123 C   0  0  0  0  0  0  0  0  0  0  0  0
   32.9182   18.2402   46.2429 N   0  0  0  0  0  0  0  0  0  0  0  0
   33.8713   18.9288   45.6128 C   0  0  0  0  0  0  0  0  0  0  0  0
   34.1372   18.7497   44.2543 C   0  0  0  0  0  0  0  0  0  0  0  0
   33.4581   17.8834   43.5056 N   0  0  0  0  0  0  0  0  0  0  0  0
   32.5027   17.1943   44.1396 C   0  0  0  0  0  0  0  0  0  0  0  0
   31.7436   15.6483   47.2746 C   0  0  0  0  0  0  0  0  0  0  0  0
   31.1159   16.5509   46.2000 C   0  0  0  0  0  0  0  0  0  0  0  0
   30.0951   17.5132   46.8292 C   0  0  0  0  0  0  0  0  0  0  0  0
   31.7827   16.2906   43.3894 O   0  0  0  0  0  0  0  0  0  0  0  0
   30.8167   16.6928   42.3835 C   0  0  0  0  0  0  0  0  0  0  0  0
  7  8  1  0  0  0
  8  9  1  0  0  0
  8  1  1  0  0  0
  1  2  2  0  0  0
  1  6  1  0  0  0
  2  3  1  0  0  0
  3  4  2  0  0  0
  4  5  1  0  0  0
  5  6  2  0  0  0
  6 10  1  0  0  0
 10 11  1  0  0  0
M  END
> <minimizedAffinity>
-3.88874

$$$$
IPZ


 11 11  0  0  0  0  0  0  0  0999 V2000
   42.4487   12.2349   52.3779 C   0  0  0  0  0  0  0  0  0  0  0  0
   41.3096   12.3824   53.0674 N   0  0  0  0  0  0  0  0  0  0  0  0
   41.4205   12.6347   54.3727 C   0  0  0  0  0  0  0  0  0  0  0  0
   42.6617   12.7419   55.0020 C   0  0  0  0  0  0  0  0  0  0  0  0
   43.8083   12.5997   54.3406 N   0  0  0  0  0  0  0  0  0  0  0  0
   43.6945   12.3471   53.0319 C   0  0  0  0  0  0  0  0  0  0  0  0
   41.6291   10.6110   50.6581 C   0  0  0  0  0  0  0  0  0  0  0  0
   42.3631   11.9442   50.8761 C   0  0  0  0  0  0  0  0  0  0  0  0
   41.6184   13.0934   50.1771 C   0  0  0  0  0  0  0  0  0  0  0  0
   44.8650   12.1959   52.3213 O   0  0  0  0  0  0  0  0  0  0  0  0
   45.6479   10.9737   52.3415 C   0  0  0  0  0  0  0  0  0  0  0  0
  7  8  1  0  0  0
  8  9  1  0  0  0
  8  1  1  0  0  0
  1  2  2  0  0  0
  1  6  1  0  0  0
  2  3  1  0  0  0
  3  4  2  0  0  0
  4  5  1  0  0  0
  5  6  2  0  0  0
  6 10  1  0  0  0
 10 11  1  0  0  0
M  END
> <minimizedAffinity>
-3.86769

$$$$
IPZ


 11 11  0  0  0  0  0  0  0  0999 V2000
   53.5297   29.9681   53.7276 C   0  0  0  0  0  0  0  0  0  0  0  0
   52.2747   30.3841   53.5123 N   0  0  0  0  0  0  0  0  0  0  0  0
   52.0945   31.6925   53.3241 C   0  0  0  0  0  0  0  0  0  0  0  0
   53.1580   32.5962   53.3487 C   0  0  0  0  0  0  0  0  0  0  0  0
   54.4141   32.2094   53.5606 N   0  0  0  0  0  0  0  0  0  0  0  0
   54.5923   30.8970   53.7487 C   0  0  0  0  0  0  0  0  0  0  0  0
   53.4771   28.1186   55.4138 C   0  0  0  0  0  0  0  0  0  0  0  0
   53.7776   28.4724   53.9481 C   0  0  0  0  0  0  0  0  0  0  0  0
   52.8784   27.6625   52.9997 C   0  0  0  0  0  0  0  0  0  0  0  0
   55.8825   30.4676   53.9696 O   0  0  0  0  0  0  0  0  0  0  0  0
   56.5704   30.6539   55.2341 C   0  0  0  0  0  0  0  0  0  0  0  0
  7  8  1  0  0  0
  8  9  1  0  0  0
  8  1  1  0  0  0
  1  2  2  0  0  0
  1  6  1  0  0  0
  2  3  1  0  0  0
  3  4  2  0  0  0
  4  5  1  0  0  0
  5  6  2  0  0  0
  6 10  1  0  0  0
 10 11  1  0  0  0
M  END
> <minimizedAffinity>
-3.85437

$$$$
IPZ


 11 11  0  0  0  0  0  0  0  0999 V2000
   60.5500   13.0356   40.1692 C   0  0  0  0  0  0  0  0  0  0  0  0
   59.4836   12.3133   39.8010 N   0  0  0  0  0  0  0  0  0  0  0  0
   58.6157   12.8948   38.9713 C   0  0  0  0  0  0  0  0  0  0  0  0
   58.8001   14.1963   38.5021 C   0  0  0  0  0  0  0  0  0  0  0  0
   59.8504   14.9356   38.8523 N   0  0  0  0  0  0  0  0  0  0  0  0
   60.7194   14.3502   39.6840 C   0  0  0  0  0  0  0  0  0  0  0  0
   60.8344   11.8238   42.3411 C   0  0  0  0  0  0  0  0  0  0  0  0
   61.5698   12.4026   41.1213 C   0  0  0  0  0  0  0  0  0  0  0  0
   62.3414   11.2988   40.3796 C   0  0  0  0  0  0  0  0  0  0  0  0
   61.8169   15.0916   40.0630 O   0  0  0  0  0  0  0  0  0  0  0  0
   63.0123   15.2049   39.2474 C   0  0  0  0  0  0  0  0  0  0  0  0
  7  8  1  0  0  0
  8  9  1  0  0  0
  8  1  1  0  0  0
  1  2  2  0  0  0
  1  6  1  0  0  0
  2  3  1  0  0  0
  3  4  2  0  0  0
  4  5  1  0  0  0
  5  6  2  0  0  0
  6 10  1  0  0  0
 10 11  1  0  0  0
M  END
> <minimizedAffinity>
-3.77735

$$$$
IPZ


 11 11  0  0  0  0  0  0  0  0999 V2000
   59.9659   14.0556   37.2844 C   0  0  0  0  0  0  0  0  0  0  0  0
   61.0138   14.5613   37.9485 N   0  0  0  0  0  0  0  0  0  0  0  0
   62.1615   14.6688   37.2770 C   0  0  0  0  0  0  0  0  0  0  0  0
   62.2769   14.2751   35.9428 C   0  0  0  0  0  0  0  0  0  0  0  0
   61.2519   13.7697   35.2600 N   0  0  0  0  0  0  0  0  0  0  0  0
   60.1021   13.6632   35.9354 C   0  0  0  0  0  0  0  0  0  0  0  0
   58.8528   13.1507   39.3358 C   0  0  0  0  0  0  0  0  0  0  0  0
   58.6300   13.9163   38.0213 C   0  0  0  0  0  0  0  0  0  0  0  0
   58.0542   15.3145   38.2994 C   0  0  0  0  0  0  0  0  0  0  0  0
   59.0235   13.1440   35.2536 O   0  0  0  0  0  0  0  0  0  0  0  0
   58.5674   13.6707   33.9801 C   0  0  0  0  0  0  0  0  0  0  0  0
  7  8  1  0  0  0
  8  9  1  0  0  0
  8  1  1  0  0  0
  1  2  2  0  0  0
  1  6  1  0  0  0
  2  3  1  0  0  0
  3  4  2  0  0  0
  4  5  1  0  0  0
  5  6  2  0  0  0
  6 10  1  0  0  0
 10 11  1  0  0  0
M  END
> <minimizedAffinity>
-3.76486

$$$$
IPZ


 11 11  0  0  0  0  0  0  0  0999 V2000
   31.9072   18.2365   44.8315 C   0  0  0  0  0  0  0  0  0  0  0  0
   31.3256   18.9838   43.8839 N   0  0  0  0  0  0  0  0  0  0  0  0
   30.0691   19.3732   44.1064 C   0  0  0  0  0  0  0  0  0  0  0  0
   29.3819   19.0236   45.2699 C   0  0  0  0  0  0  0  0  0  0  0  0
   29.9362   18.2823   46.2268 N   0  0  0  0  0  0  0  0  0  0  0  0
   31.1961   17.8933   46.0015 C   0  0  0  0  0  0  0  0  0  0  0  0
   33.3459   16.4923   43.7572 C   0  0  0  0  0  0  0  0  0  0  0  0
   33.3499   17.7695   44.6129 C   0  0  0  0  0  0  0  0  0  0  0  0
   34.1459   18.8857   43.9169 C   0  0  0  0  0  0  0  0  0  0  0  0
   31.7958   17.1253   46.9754 O   0  0  0  0  0  0  0  0  0  0  0  0
   31.5463   15.7030   47.1234 C   0  0  0  0  0  0  0  0  0  0  0  0
  7  8  1  0  0  0
  8  9  1  0  0  0
  8  1  1  0  0  0
  1  2  2  0  0  0
  1  6  1  0  0  0
  2  3  1  0  0  0
  3  4  2  0  0  0
  4  5  1  0  0  0
  5  6  2  0  0  0
  6 10  1  0  0  0
 10 11  1  0  0  0
M  END
> <minimizedAffinity>
-3.75973

$$$$
IPZ


 11 11  0  0  0  0  0  0  0  0999 V2000
   41.2513   11.4612   52.2373 C   0  0  0  0  0  0  0  0  0  0  0  0
   40.3082   12.3222   52.6420 N   0  0  0  0  0  0  0  0  0  0  0  0
   39.3738   11.8516   53.4698 C   0  0  0  0  0  0  0  0  0  0  0  0
   39.3692   10.5241   53.9010 C   0  0  0  0  0  0  0  0  0  0  0  0
   40.2941    9.6481   53.5142 N   0  0  0  0  0  0  0  0  0  0  0  0
   41.2300   10.1225   52.6844 C   0  0  0  0  0  0  0  0  0  0  0  0
   41.7478   13.0288   50.3498 C   0  0  0  0  0  0  0  0  0  0  0  0
   42.3420   11.9638   51.2860 C   0  0  0  0  0  0  0  0  0  0  0  0
   43.5022   12.5503   52.1069 C   0  0  0  0  0  0  0  0  0  0  0  0
   42.2010    9.2384   52.2679 O   0  0  0  0  0  0  0  0  0  0  0  0
   41.9416    7.8269   52.0499 C   0  0  0  0  0  0  0  0  0  0  0  0
  7  8  1  0  0  0
  8  9  1  0  0  0
  8  1  1  0  0  0
  1  2  2  0  0  0
  1  6  1  0  0  0
  2  3  1  0  0  0
  3  4  2  0  0  0
  4  5  1  0  0  0
  5  6  2  0  0  0
  6 10  1  0  0  0
 10 11  1  0  0  0
M  END
> <minimizedAffinity>
-3.75769

$$$$
IPZ


 11 11  0  0  0  0  0  0  0  0999 V2000
   58.3843   16.0481   53.1747 C   0  0  0  0  0  0  0  0  0  0  0  0
   57.0847   15.9612   53.4879 N   0  0  0  0  0  0  0  0  0  0  0  0
   56.6281   14.7611   53.8498 C   0  0  0  0  0  0  0  0  0  0  0  0
   57.4578   13.6398   53.9031 C   0  0  0  0  0  0  0  0  0  0  0  0
   58.7521   13.6985   53.5971 N   0  0  0  0  0  0  0  0  0  0  0  0
   59.2076   14.9030   53.2347 C   0  0  0  0  0  0  0  0  0  0  0  0
   58.8173   17.5633   51.2297 C   0  0  0  0  0  0  0  0  0  0  0  0
   58.9467   17.4096   52.7540 C   0  0  0  0  0  0  0  0  0  0  0  0
   58.1750   18.5247   53.4786 C   0  0  0  0  0  0  0  0  0  0  0  0
   60.5440   14.9940   52.9130 O   0  0  0  0  0  0  0  0  0  0  0  0
   61.6000   14.9451   53.9078 C   0  0  0  0  0  0  0  0  0  0  0  0
  7  8  1  0  0  0
  8  9  1  0  0  0
  8  1  1  0  0  0
  1  2  2  0  0  0
  1  6  1  0  0  0
  2  3  1  0  0  0
  3  4  2  0  0  0
  4  5  1  0  0  0
  5  6  2  0  0  0
  6 10  1  0  0  0
 10 11  1  0  0  0
M  END
> <minimizedAffinity>
-3.75762

$$$$
IPZ


 11 11  0  0  0  0  0  0  0  0999 V2000
   53.9641   30.0993   54.0098 C   0  0  0  0  0  0  0  0  0  0  0  0
   55.2934   30.1666   54.1618 N   0  0  0  0  0  0  0  0  0  0  0  0
   55.8815   31.3210   53.8436 C   0  0  0  0  0  0  0  0  0  0  0  0
   55.1548   32.4155   53.3724 C   0  0  0  0  0  0  0  0  0  0  0  0
   53.8338   32.3754   53.2121 N   0  0  0  0  0  0  0  0  0  0  0  0
   53.2463   31.2170   53.5321 C   0  0  0  0  0  0  0  0  0  0  0  0
   53.1288   27.9209   53.1027 C   0  0  0  0  0  0  0  0  0  0  0  0
   53.2518   28.7902   54.3647 C   0  0  0  0  0  0  0  0  0  0  0  0
   54.0509   28.0552   55.4534 C   0  0  0  0  0  0  0  0  0  0  0  0
   51.8793   31.1465   53.3769 O   0  0  0  0  0  0  0  0  0  0  0  0
   50.9822   32.2087   53.7941 C   0  0  0  0  0  0  0  0  0  0  0  0
  7  8  1  0  0  0
  8  9  1  0  0  0
  8  1  1  0  0  0
  1  2  2  0  0  0
  1  6  1  0  0  0
  2  3  1  0  0  0
  3  4  2  0  0  0
  4  5  1  0  0  0
  5  6  2  0  0  0
  6 10  1  0  0  0
 10 11  1  0  0  0
M  END
> <minimizedAffinity>
-3.75195

$$$$
IPZ


 11 11  0  0  0  0  0  0  0  0999 V2000
   32.3494   17.4462   44.7507 C   0  0  0  0  0  0  0  0  0  0  0  0
   32.8613   16.5057   43.9458 N   0  0  0  0  0  0  0  0  0  0  0  0
   32.3286   15.2852   44.0256 C   0  0  0  0  0  0  0  0  0  0  0  0
   31.2851   14.9902   44.9044 C   0  0  0  0  0  0  0  0  0  0  0  0
   30.7583   15.9057   45.7147 N   0  0  0  0  0  0  0  0  0  0  0  0
   31.2940   17.1288   45.6326 C   0  0  0  0  0  0  0  0  0  0  0  0
   34.0125   19.0124   45.7741 C   0  0  0  0  0  0  0  0  0  0  0  0
   32.9345   18.8608   44.6885 C   0  0  0  0  0  0  0  0  0  0  0  0
   33.5327   19.1030   43.2931 C   0  0  0  0  0  0  0  0  0  0  0  0
   30.7681   18.0973   46.4593 O   0  0  0  0  0  0  0  0  0  0  0  0
   29.4279   18.0203   47.0115 C   0  0  0  0  0  0  0  0  0  0  0  0
  7  8  1  0  0  0
  8  9  1  0  0  0
  8  1  1  0  0  0
  1  2  2  0  0  0
  1  6  1  0  0  0
  2  3  1  0  0  0
  3  4  2  0  0  0
  4  5  1  0  0  0
  5  6  2  0  0  0
  6 10  1  0  0  0
 10 11  1  0  0  0
M  END
> <minimizedAffinity>
-3.71800

$$$$
IPZ


 11 11  0  0  0  0  0  0  0  0999 V2000
   43.0036   10.9412   51.6422 C   0  0  0  0  0  0  0  0  0  0  0  0
   41.9164   10.1837   51.4452 N   0  0  0  0  0  0  0  0  0  0  0  0
   42.0977    8.8626   51.4076 C   0  0  0  0  0  0  0  0  0  0  0  0
   43.3584    8.2847   51.5650 C   0  0  0  0  0  0  0  0  0  0  0  0
   44.4547    9.0140   51.7619 N   0  0  0  0  0  0  0  0  0  0  0  0
   44.2703   10.3384   51.7995 C   0  0  0  0  0  0  0  0  0  0  0  0
   41.7452   12.8868   50.6951 C   0  0  0  0  0  0  0  0  0  0  0  0
   42.8365   12.4633   51.6917 C   0  0  0  0  0  0  0  0  0  0  0  0
   42.4598   12.8875   53.1207 C   0  0  0  0  0  0  0  0  0  0  0  0
   45.3874   11.1186   52.0028 O   0  0  0  0  0  0  0  0  0  0  0  0
   46.5398   10.6644   52.7596 C   0  0  0  0  0  0  0  0  0  0  0  0
  7  8  1  0  0  0
  8  9  1  0  0  0
  8  1  1  0  0  0
  1  2  2  0  0  0
  1  6  1  0  0  0
  2  3  1  0  0  0
  3  4  2  0  0  0
  4  5  1  0  0  0
  5  6  2  0  0  0
  6 10  1  0  0  0
 10 11  1  0  0  0
M  END
> <minimizedAffinity>
-3.68251

$$$$
IPZ


 11 11  0  0  0  0  0  0  0  0999 V2000
   53.1060   30.1707   54.8484 C   0  0  0  0  0  0  0  0  0  0  0  0
   52.7880   30.7602   56.0086 N   0  0  0  0  0  0  0  0  0  0  0  0
   52.7842   29.9902   57.0979 C   0  0  0  0  0  0  0  0  0  0  0  0
   53.0956   28.6307   57.0432 C   0  0  0  0  0  0  0  0  0  0  0  0
   53.4148   28.0202   55.9039 N   0  0  0  0  0  0  0  0  0  0  0  0
   53.4181   28.7945   54.8131 C   0  0  0  0  0  0  0  0  0  0  0  0
   51.8101   31.8189   53.4808 C   0  0  0  0  0  0  0  0  0  0  0  0
   53.1214   31.0217   53.5746 C   0  0  0  0  0  0  0  0  0  0  0  0
   54.3309   31.9703   53.6112 C   0  0  0  0  0  0  0  0  0  0  0  0
   53.7456   28.1898   53.6194 O   0  0  0  0  0  0  0  0  0  0  0  0
   52.7991   27.4069   52.8459 C   0  0  0  0  0  0  0  0  0  0  0  0
  7  8  1  0  0  0
  8  9  1  0  0  0
  8  1  1  0  0  0
  1  2  2  0  0  0
  1  6  1  0  0  0
  2  3  1  0  0  0
  3  4  2  0  0  0
  4  5  1  0  0  0
  5  6  2  0  0  0
  6 10  1  0  0  0
 10 11  1  0  0  0
M  END
> <minimizedAffinity>
-3.67047

$$$$
IPZ


 11 11  0  0  0  0  0  0  0  0999 V2000
   32.2387   17.2678   44.4586 C   0  0  0  0  0  0  0  0  0  0  0  0
   33.1300   17.7262   43.5699 N   0  0  0  0  0  0  0  0  0  0  0  0
   34.0323   18.6027   44.0143 C   0  0  0  0  0  0  0  0  0  0  0  0
   34.0557   19.0300   45.3429 C   0  0  0  0  0  0  0  0  0  0  0  0
   33.1819   18.5905   46.2460 N   0  0  0  0  0  0  0  0  0  0  0  0
   32.2784   17.7115   45.7980 C   0  0  0  0  0  0  0  0  0  0  0  0
   30.7695   16.5975   42.5459 C   0  0  0  0  0  0  0  0  0  0  0  0
   31.1861   16.2596   43.9867 C   0  0  0  0  0  0  0  0  0  0  0  0
   31.7715   14.8399   44.0627 C   0  0  0  0  0  0  0  0  0  0  0  0
   31.3616   17.2387   46.7111 O   0  0  0  0  0  0  0  0  0  0  0  0
   31.5628   16.0189   47.4718 C   0  0  0  0  0  0  0  0  0  0  0  0
  7  8  1  0  0  0
  8  9  1  0  0  0
  8  1  1  0  0  0
  1  2  2  0  0  0
  1  6  1  0  0  0
  2  3  1  0  0  0
  3  4  2  0  0  0
  4  5  1  0  0  0
  5  6  2  0  0  0
  6 10  1  0  0  0
 10 11  1  0  0  0
M  END
> <minimizedAffinity>
-3.66041

$$$$
IPZ


 11 11  0  0  0  0  0  0  0  0999 V2000
   41.6706   11.2500   52.6776 C   0  0  0  0  0  0  0  0  0  0  0  0
   42.6201   10.3052   52.6558 N   0  0  0  0  0  0  0  0  0  0  0  0
   42.2665    9.0822   53.0543 C   0  0  0  0  0  0  0  0  0  0  0  0
   40.9690    8.7889   53.4772 C   0  0  0  0  0  0  0  0  0  0  0  0
   40.0071    9.7087   53.5087 N   0  0  0  0  0  0  0  0  0  0  0  0
   40.3640   10.9341   53.1083 C   0  0  0  0  0  0  0  0  0  0  0  0
   43.5080   12.9472   52.5786 C   0  0  0  0  0  0  0  0  0  0  0  0
   42.0377   12.6676   52.2272 C   0  0  0  0  0  0  0  0  0  0  0  0
   41.8089   12.7952   50.7122 C   0  0  0  0  0  0  0  0  0  0  0  0
   39.3885   11.9066   53.1296 O   0  0  0  0  0  0  0  0  0  0  0  0
   38.6833   12.2903   54.3389 C   0  0  0  0  0  0  0  0  0  0  0  0
  7  8  1  0  0  0
  8  9  1  0  0  0
  8  1  1  0  0  0
  1  2  2  0  0  0
  1  6  1  0  0  0
  2  3  1  0  0  0
  3  4  2  0  0  0
  4  5  1  0  0  0
  5  6  2  0  0  0
  6 10  1  0  0  0
 10 11  1  0  0  0
M  END
> <minimizedAffinity>
-3.64681

$$$$
IPZ


 11 11  0  0  0  0  0  0  0  0999 V2000
   42.8188   11.2267   51.6431 C   0  0  0  0  0  0  0  0  0  0  0  0
   43.8825   12.0146   51.8495 N   0  0  0  0  0  0  0  0  0  0  0  0
   45.0431   11.4095   52.1074 C   0  0  0  0  0  0  0  0  0  0  0  0
   45.1557   10.0193   52.1626 C   0  0  0  0  0  0  0  0  0  0  0  0
   44.1151    9.2137   51.9616 N   0  0  0  0  0  0  0  0  0  0  0  0
   42.9525    9.8228   51.7028 C   0  0  0  0  0  0  0  0  0  0  0  0
   40.8601   12.4143   52.6527 C   0  0  0  0  0  0  0  0  0  0  0  0
   41.4677   11.8841   51.3438 C   0  0  0  0  0  0  0  0  0  0  0  0
   41.6708   13.0288   50.3377 C   0  0  0  0  0  0  0  0  0  0  0  0
   41.8580    9.0138   51.4897 O   0  0  0  0  0  0  0  0  0  0  0  0
   41.6917    7.7250   52.1364 C   0  0  0  0  0  0  0  0  0  0  0  0
  7  8  1  0  0  0
  8  9  1  0  0  0
  8  1  1  0  0  0
  1  2  2  0  0  0
  1  6  1  0  0  0
  2  3  1  0  0  0
  3  4  2  0  0  0
  4  5  1  0  0  0
  5  6  2  0  0  0
  6 10  1  0  0  0
 10 11  1  0  0  0
M  END
> <minimizedAffinity>
-3.64619

$$$$
IPZ


 11 11  0  0  0  0  0  0  0  0999 V2000
   32.0051   17.1110   45.7721 C   0  0  0  0  0  0  0  0  0  0  0  0
   32.3825   16.0075   46.4313 N   0  0  0  0  0  0  0  0  0  0  0  0
   31.6345   15.6388   47.4726 C   0  0  0  0  0  0  0  0  0  0  0  0
   30.5080   16.3626   47.8666 C   0  0  0  0  0  0  0  0  0  0  0  0
   30.1113   17.4621   47.2295 N   0  0  0  0  0  0  0  0  0  0  0  0
   30.8627   17.8296   46.1855 C   0  0  0  0  0  0  0  0  0  0  0  0
   34.0709   18.3383   45.0703 C   0  0  0  0  0  0  0  0  0  0  0  0
   32.8386   17.5670   44.5702 C   0  0  0  0  0  0  0  0  0  0  0  0
   33.2643   16.3378   43.7507 C   0  0  0  0  0  0  0  0  0  0  0  0
   30.4755   18.9639   45.5063 O   0  0  0  0  0  0  0  0  0  0  0  0
   29.3191   19.0024   44.6298 C   0  0  0  0  0  0  0  0  0  0  0  0
  7  8  1  0  0  0
  8  9  1  0  0  0
  8  1  1  0  0  0
  1  2  2  0  0  0
  1  6  1  0  0  0
  2  3  1  0  0  0
  3  4  2  0  0  0
  4  5  1  0  0  0
  5  6  2  0  0  0
  6 10  1  0  0  0
 10 11  1  0  0  0
M  END
> <minimizedAffinity>
-3.63795

$$$$
IPZ


 11 11  0  0  0  0  0  0  0  0999 V2000
   42.4531   10.8446   52.0139 C   0  0  0  0  0  0  0  0  0  0  0  0
   43.2267   10.0809   51.2311 N   0  0  0  0  0  0  0  0  0  0  0  0
   42.9767    8.7705   51.2263 C   0  0  0  0  0  0  0  0  0  0  0  0
   41.9579    8.2096   51.9982 C   0  0  0  0  0  0  0  0  0  0  0  0
   41.1750    8.9454   52.7843 N   0  0  0  0  0  0  0  0  0  0  0  0
   41.4275   10.2591   52.7872 C   0  0  0  0  0  0  0  0  0  0  0  0
   44.2216   12.6153   51.9578 C   0  0  0  0  0  0  0  0  0  0  0  0
   42.7090   12.3548   52.0467 C   0  0  0  0  0  0  0  0  0  0  0  0
   41.9743   13.0209   50.8718 C   0  0  0  0  0  0  0  0  0  0  0  0
   40.6322   11.0458   53.5912 O   0  0  0  0  0  0  0  0  0  0  0  0
   39.3605   11.5906   53.1519 C   0  0  0  0  0  0  0  0  0  0  0  0
  7  8  1  0  0  0
  8  9  1  0  0  0
  8  1  1  0  0  0
  1  2  2  0  0  0
  1  6  1  0  0  0
  2  3  1  0  0  0
  3  4  2  0  0  0
  4  5  1  0  0  0
  5  6  2  0  0  0
  6 10  1  0  0  0
 10 11  1  0  0  0
M  END
> <minimizedAffinity>
-3.59632

$$$$
IPZ


 11 11  0  0  0  0  0  0  0  0999 V2000
   42.0471   11.6975   53.2912 C   0  0  0  0  0  0  0  0  0  0  0  0
   41.4597   12.5375   54.1536 N   0  0  0  0  0  0  0  0  0  0  0  0
   40.1260   12.5679   54.1559 C   0  0  0  0  0  0  0  0  0  0  0  0
   39.3669   11.7655   53.3026 C   0  0  0  0  0  0  0  0  0  0  0  0
   39.9252   10.9227   52.4364 N   0  0  0  0  0  0  0  0  0  0  0  0
   41.2626   10.8938   52.4362 C   0  0  0  0  0  0  0  0  0  0  0  0
   44.1060   12.6477   52.2307 C   0  0  0  0  0  0  0  0  0  0  0  0
   43.5775   11.6337   53.2584 C   0  0  0  0  0  0  0  0  0  0  0  0
   44.1297   11.9440   54.6593 C   0  0  0  0  0  0  0  0  0  0  0  0
   41.8681   10.0299   51.5503 O   0  0  0  0  0  0  0  0  0  0  0  0
   42.0183   10.3262   50.1372 C   0  0  0  0  0  0  0  0  0  0  0  0
  7  8  1  0  0  0
  8  9  1  0  0  0
  8  1  1  0  0  0
  1  2  2  0  0  0
  1  6  1  0  0  0
  2  3  1  0  0  0
  3  4  2  0  0  0
  4  5  1  0  0  0
  5  6  2  0  0  0
  6 10  1  0  0  0
 10 11  1  0  0  0
M  END
> <minimizedAffinity>
-3.58847

$$$$
