IPZ
     RDKit          3D

 11 11  0  0  0  0  0  0  0  0999 V2000
   32.0051   17.1110   45.7721 C   0  0  0  0  0  0  0  0  0  0  0  0
   32.3825   16.0075   46.4313 N   0  0  0  0  0  0  0  0  0  0  0  0
   31.6345   15.6388   47.4726 C   0  0  0  0  0  0  0  0  0  0  0  0
   30.5080   16.3626   47.8666 C   0  0  0  0  0  0  0  0  0  0  0  0
   30.1113   17.4621   47.2295 N   0  0  0  0  0  0  0  0  0  0  0  0
   30.8627   17.8296   46.1855 C   0  0  0  0  0  0  0  0  0  0  0  0
   34.0709   18.3383   45.0703 C   0  0  0  0  0  0  0  0  0  0  0  0
   32.8386   17.5670   44.5702 C   0  0  0  0  0  0  0  0  0  0  0  0
   33.2643   16.3378   43.7507 C   0  0  0  0  0  0  0  0  0  0  0  0
   30.4755   18.9639   45.5063 O   0  0  0  0  0  0  0  0  0  0  0  0
   29.3191   19.0024   44.6298 C   0  0  0  0  0  0  0  0  0  0  0  0
  7  8  1  0
  8  9  1  0
  8  1  1  0
  1  2  2  0
  1  6  1  0
  2  3  1  0
  3  4  2  0
  4  5  1  0
  5  6  2  0
  6 10  1  0
 10 11  1  0
M  END
>  <minimizedAffinity>  (1) 
-3.63795

$$$$
