IPZ
     RDKit          3D

 11 11  0  0  0  0  0  0  0  0999 V2000
   32.2387   17.2678   44.4586 C   0  0  0  0  0  0  0  0  0  0  0  0
   33.1300   17.7262   43.5699 N   0  0  0  0  0  0  0  0  0  0  0  0
   34.0323   18.6027   44.0143 C   0  0  0  0  0  0  0  0  0  0  0  0
   34.0557   19.0300   45.3429 C   0  0  0  0  0  0  0  0  0  0  0  0
   33.1819   18.5905   46.2460 N   0  0  0  0  0  0  0  0  0  0  0  0
   32.2784   17.7115   45.7980 C   0  0  0  0  0  0  0  0  0  0  0  0
   30.7695   16.5975   42.5459 C   0  0  0  0  0  0  0  0  0  0  0  0
   31.1861   16.2596   43.9867 C   0  0  0  0  0  0  0  0  0  0  0  0
   31.7715   14.8399   44.0627 C   0  0  0  0  0  0  0  0  0  0  0  0
   31.3616   17.2387   46.7111 O   0  0  0  0  0  0  0  0  0  0  0  0
   31.5628   16.0189   47.4718 C   0  0  0  0  0  0  0  0  0  0  0  0
  7  8  1  0
  8  9  1  0
  8  1  1  0
  1  2  2  0
  1  6  1  0
  2  3  1  0
  3  4  2  0
  4  5  1  0
  5  6  2  0
  6 10  1  0
 10 11  1  0
M  END
>  <minimizedAffinity>  (1) 
-3.66041

$$$$
