IPZ
     RDKit          3D

 11 11  0  0  0  0  0  0  0  0999 V2000
   54.3246   28.8280   54.9154 C   0  0  0  0  0  0  0  0  0  0  0  0
   53.5255   28.6418   55.9743 N   0  0  0  0  0  0  0  0  0  0  0  0
   54.1180   28.4730   57.1576 C   0  0  0  0  0  0  0  0  0  0  0  0
   55.5066   28.4877   57.2977 C   0  0  0  0  0  0  0  0  0  0  0  0
   56.3233   28.6706   56.2624 N   0  0  0  0  0  0  0  0  0  0  0  0
   55.7268   28.8399   55.0770 C   0  0  0  0  0  0  0  0  0  0  0  0
   52.9288   27.7455   53.1416 C   0  0  0  0  0  0  0  0  0  0  0  0
   53.6819   29.0256   53.5387 C   0  0  0  0  0  0  0  0  0  0  0  0
   52.7212   30.2248   53.5932 C   0  0  0  0  0  0  0  0  0  0  0  0
   56.5473   29.0322   53.9872 O   0  0  0  0  0  0  0  0  0  0  0  0
   57.6423   29.9852   53.9825 C   0  0  0  0  0  0  0  0  0  0  0  0
  7  8  1  0
  8  9  1  0
  8  1  1  0
  1  2  2  0
  1  6  1  0
  2  3  1  0
  3  4  2  0
  4  5  1  0
  5  6  2  0
  6 10  1  0
 10 11  1  0
M  END
>  <minimizedAffinity>  (1) 
-3.89917

$$$$
