IPZ
     RDKit          3D

 11 11  0  0  0  0  0  0  0  0999 V2000
   48.8043   24.5963   41.3055 C   0  0  0  0  0  0  0  0  0  0  0  0
   48.9840   25.3297   42.4120 N   0  0  0  0  0  0  0  0  0  0  0  0
   48.0163   26.1908   42.7313 C   0  0  0  0  0  0  0  0  0  0  0  0
   46.8648   26.3298   41.9549 C   0  0  0  0  0  0  0  0  0  0  0  0
   46.6614   25.6138   40.8511 N   0  0  0  0  0  0  0  0  0  0  0  0
   47.6329   24.7509   40.5332 C   0  0  0  0  0  0  0  0  0  0  0  0
   50.8988   24.2870   39.9700 C   0  0  0  0  0  0  0  0  0  0  0  0
   49.8933   23.5958   40.9053 C   0  0  0  0  0  0  0  0  0  0  0  0
   50.5974   23.0774   42.1700 C   0  0  0  0  0  0  0  0  0  0  0  0
   47.4492   23.9954   39.3960 O   0  0  0  0  0  0  0  0  0  0  0  0
   46.6625   22.7756   39.3777 C   0  0  0  0  0  0  0  0  0  0  0  0
  7  8  1  0
  8  9  1  0
  8  1  1  0
  1  2  2  0
  1  6  1  0
  2  3  1  0
  3  4  2  0
  4  5  1  0
  5  6  2  0
  6 10  1  0
 10 11  1  0
M  END
>  <minimizedAffinity>  (1) 
-4.59204

$$$$
