IPZ
     RDKit          3D

 11 11  0  0  0  0  0  0  0  0999 V2000
   47.8824   25.1571   41.6145 C   0  0  0  0  0  0  0  0  0  0  0  0
   47.0243   25.2460   40.5897 N   0  0  0  0  0  0  0  0  0  0  0  0
   47.1363   24.3312   39.6251 C   0  0  0  0  0  0  0  0  0  0  0  0
   48.1003   23.3228   39.6712 C   0  0  0  0  0  0  0  0  0  0  0  0
   48.9649   23.2119   40.6774 N   0  0  0  0  0  0  0  0  0  0  0  0
   48.8503   24.1301   41.6435 C   0  0  0  0  0  0  0  0  0  0  0  0
   48.6781   27.3950   42.4049 C   0  0  0  0  0  0  0  0  0  0  0  0
   47.7856   26.1896   42.7423 C   0  0  0  0  0  0  0  0  0  0  0  0
   46.3211   26.6284   42.9058 C   0  0  0  0  0  0  0  0  0  0  0  0
   49.7317   24.0396   42.6984 O   0  0  0  0  0  0  0  0  0  0  0  0
   50.7413   23.0012   42.7960 C   0  0  0  0  0  0  0  0  0  0  0  0
  7  8  1  0
  8  9  1  0
  8  1  1  0
  1  2  2  0
  1  6  1  0
  2  3  1  0
  3  4  2  0
  4  5  1  0
  5  6  2  0
  6 10  1  0
 10 11  1  0
M  END
>  <minimizedAffinity>  (1) 
-4.61336

$$$$
