@<TRIPOS>MOLECULE
IPZ
23 23 1 0 0 
SMALL
USER_CHARGES


@<TRIPOS>ATOM
  1 C        0.4843    -1.2691    -2.5339 C.3   1 <1>  -0.2400 
  2 C        0.7157    -0.0003    -1.6971 C.3   1 <1>   0.0635 
  3 C        0.4737     1.2595    -2.5446 C.3   1 <1>  -0.2400 
  4 C       -0.2440     0.0001    -0.5029 C.ar  1 <1>   0.1665 
  5 N       -1.5623    -0.0036    -0.7409 N.ar  1 <1>  -0.6200 
  6 C       -2.3693    -0.0031     0.3214 C.ar  1 <1>   0.1600 
  7 C       -1.8736     0.0008     1.6262 C.ar  1 <1>   0.1600 
  8 N       -0.5688     0.0044     1.8905 N.ar  1 <1>  -0.6200 
  9 C        0.2383     0.0042     0.8237 C.ar  1 <1>   0.3925 
 10 O        1.5943     0.0087     1.0669 O.3   1 <1>  -0.3625 
 11 C        2.1557     0.0082     2.4055 C.3   1 <1>   0.0400 
 12 H        1.1840    -1.2945    -3.3692 H     1 <1>   0.0800 
 13 H        0.6398    -2.1506    -1.9112 H     1 <1>   0.0800 
 14 H       -0.5355    -1.2843    -2.9213 H     1 <1>   0.0800 
 15 H        1.7585     0.0053    -1.3786 H     1 <1>   0.0800 
 16 H       -0.5453     1.2610    -2.9346 H     1 <1>   0.0800 
 17 H        0.6188     2.1478    -1.9290 H     1 <1>   0.0800 
 18 H        1.1749     1.2851    -3.3785 H     1 <1>   0.0800 
 19 H       -3.4151    -0.0056     0.1504 H     1 <1>   0.1500 
 20 H       -2.5460     0.0012     2.4453 H     1 <1>   0.1500 
 21 H        3.2415     0.0168     2.3165 H     1 <1>   0.0800 
 22 H        1.8041     0.9009     2.9246 H     1 <1>   0.0800 
 23 H        1.8172    -0.8934     2.9174 H     1 <1>   0.0800 
@<TRIPOS>BOND
  1   1   2  1   
  2   1  12  1   
  3   1  13  1   
  4   1  14  1   
  5   2   3  1   
  6   2   4  1   
  7   2  15  1   
  8   3  16  1   
  9   3  17  1   
 10   3  18  1   
 11   4   5  ar  
 12   4   9  ar  
 13   5   6  ar  
 14   6   7  ar  
 15   6  19  1   
 16   7   8  ar  
 17   7  20  1   
 18   8   9  ar  
 19   9  10  1   
 20  10  11  1   
 21  11  21  1   
 22  11  22  1   
 23  11  23  1   
@<TRIPOS>SUBSTRUCTURE
  1 ****   4 GROUP 4 **** **** 0

# MOE 2019.01 (io_trps.svl 2018.10)
