IPZ
     RDKit          3D

 11 11  0  0  0  0  0  0  0  0999 V2000
   42.4531   10.8446   52.0139 C   0  0  0  0  0  0  0  0  0  0  0  0
   43.2267   10.0809   51.2311 N   0  0  0  0  0  0  0  0  0  0  0  0
   42.9767    8.7705   51.2263 C   0  0  0  0  0  0  0  0  0  0  0  0
   41.9579    8.2096   51.9982 C   0  0  0  0  0  0  0  0  0  0  0  0
   41.1750    8.9454   52.7843 N   0  0  0  0  0  0  0  0  0  0  0  0
   41.4275   10.2591   52.7872 C   0  0  0  0  0  0  0  0  0  0  0  0
   44.2216   12.6153   51.9578 C   0  0  0  0  0  0  0  0  0  0  0  0
   42.7090   12.3548   52.0467 C   0  0  0  0  0  0  0  0  0  0  0  0
   41.9743   13.0209   50.8718 C   0  0  0  0  0  0  0  0  0  0  0  0
   40.6322   11.0458   53.5912 O   0  0  0  0  0  0  0  0  0  0  0  0
   39.3605   11.5906   53.1519 C   0  0  0  0  0  0  0  0  0  0  0  0
  7  8  1  0
  8  9  1  0
  8  1  1  0
  1  2  2  0
  1  6  1  0
  2  3  1  0
  3  4  2  0
  4  5  1  0
  5  6  2  0
  6 10  1  0
 10 11  1  0
M  END
>  <minimizedAffinity>  (1) 
-3.59632

$$$$
