IPZ
     RDKit          3D

 11 11  0  0  0  0  0  0  0  0999 V2000
   58.2653   14.3834   35.7405 C   0  0  0  0  0  0  0  0  0  0  0  0
   57.4275   15.4158   35.5772 N   0  0  0  0  0  0  0  0  0  0  0  0
   56.7740   15.4875   34.4164 C   0  0  0  0  0  0  0  0  0  0  0  0
   56.9477   14.5356   33.4104 C   0  0  0  0  0  0  0  0  0  0  0  0
   57.7737   13.5004   33.5468 N   0  0  0  0  0  0  0  0  0  0  0  0
   58.4275   13.4306   34.7117 C   0  0  0  0  0  0  0  0  0  0  0  0
   60.4788   14.7494   36.8509 C   0  0  0  0  0  0  0  0  0  0  0  0
   59.0344   14.2661   37.0603 C   0  0  0  0  0  0  0  0  0  0  0  0
   58.3310   15.1103   38.1357 C   0  0  0  0  0  0  0  0  0  0  0  0
   59.2890   12.3690   34.8814 O   0  0  0  0  0  0  0  0  0  0  0  0
   58.8496   10.9857   34.8617 C   0  0  0  0  0  0  0  0  0  0  0  0
  7  8  1  0
  8  9  1  0
  8  1  1  0
  1  2  2  0
  1  6  1  0
  2  3  1  0
  3  4  2  0
  4  5  1  0
  5  6  2  0
  6 10  1  0
 10 11  1  0
M  END
>  <minimizedAffinity>  (1) 
-4.19627

$$$$
