IPZ
     RDKit          3D

 11 11  0  0  0  0  0  0  0  0999 V2000
   57.6517   13.5210   33.6062 C   0  0  0  0  0  0  0  0  0  0  0  0
   57.0687   14.6537   34.0206 N   0  0  0  0  0  0  0  0  0  0  0  0
   57.4442   15.1281   35.2095 C   0  0  0  0  0  0  0  0  0  0  0  0
   58.4000   14.4818   35.9949 C   0  0  0  0  0  0  0  0  0  0  0  0
   58.9944   13.3554   35.6071 N   0  0  0  0  0  0  0  0  0  0  0  0
   58.6164   12.8819   34.4145 C   0  0  0  0  0  0  0  0  0  0  0  0
   55.8741   13.5073   31.8438 C   0  0  0  0  0  0  0  0  0  0  0  0
   57.2471   12.9444   32.2458 C   0  0  0  0  0  0  0  0  0  0  0  0
   58.3116   13.3138   31.1997 C   0  0  0  0  0  0  0  0  0  0  0  0
   59.2157   11.7175   33.9868 O   0  0  0  0  0  0  0  0  0  0  0  0
   59.3653   10.5494   34.8354 C   0  0  0  0  0  0  0  0  0  0  0  0
  7  8  1  0
  8  9  1  0
  8  1  1  0
  1  2  2  0
  1  6  1  0
  2  3  1  0
  3  4  2  0
  4  5  1  0
  5  6  2  0
  6 10  1  0
 10 11  1  0
M  END
>  <minimizedAffinity>  (1) 
-4.17808

$$$$
