@<TRIPOS>MOLECULE
PAF
21 20 1 0 0 
SMALL
USER_CHARGES


@<TRIPOS>ATOM
  1 O       -2.4878     0.5863    -0.4343 O.co2 1 <1>  -0.9000 
  2 C       -1.7850    -0.4542    -0.3866 C.2   1 <1>   0.9060 
  3 O       -2.0008    -1.4893    -1.0571 O.co2 1 <1>  -0.9000 
  4 C       -0.5961    -0.4466     0.5929 C.3   1 <1>   0.0940 
  5 H       -0.4555    -1.4558     0.9503 H     1 <1>   0.0800 
  6 O       -0.9205     0.4793     1.7120 O.3   1 <1>  -0.6800 
  7 H       -1.6735     1.0160     1.3718 H     1 <1>   0.4000 
  8 C        0.7278     0.0496    -0.0901 C.3   1 <1>  -0.0000 
  9 C        0.5796     1.4667    -0.6896 C.3   1 <1>  -0.2400 
 10 H1       1.5208     1.7961    -1.1285 H     1 <1>   0.0800 
 11 H2       0.2912     2.1739     0.0882 H     1 <1>   0.0800 
 12 H3      -0.1879     1.4737    -1.4649 H     1 <1>   0.0800 
 13 C        1.1291    -0.9167    -1.2292 C.3   1 <1>  -0.2400 
 14 H1       2.0474    -0.5923    -1.7159 H     1 <1>   0.0800 
 15 H2       0.3479    -0.9453    -1.9907 H     1 <1>   0.0800 
 16 H3       1.2594    -1.9252    -0.8355 H     1 <1>   0.0800 
 17 C        1.8373     0.0606     0.9916 C.3   1 <1>   0.1200 
 18 H1       1.8651    -0.9169     1.4755 H     1 <1>   0.0800 
 19 H2       1.5916     0.8019     1.7544 H     1 <1>   0.0800 
 20 O        3.1249     0.3515     0.4655 O.3   1 <1>  -0.6800 
 21 H        3.1941    -0.0963    -0.3808 H     1 <1>   0.4000 
@<TRIPOS>BOND
  1   1   2  ar  
  2   2   3  ar  
  3   2   4  1   
  4   4   5  1   
  5   4   6  1   
  6   4   8  1   
  7   6   7  1   
  8   8   9  1   
  9   8  13  1   
 10   8  17  1   
 11   9  10  1   
 12   9  11  1   
 13   9  12  1   
 14  13  14  1   
 15  13  15  1   
 16  13  16  1   
 17  17  18  1   
 18  17  19  1   
 19  17  20  1   
 20  20  21  1   
@<TRIPOS>SUBSTRUCTURE
  1 ****   8 GROUP 4 **** **** 0

# MOE 2019.01 (io_trps.svl 2018.10)
