@<TRIPOS>MOLECULE
VGG
43 45 1 0 0 
SMALL
USER_CHARGES


@<TRIPOS>ATOM
  1 C       -3.5232     2.8840    -1.0399 C.3   1 <1>  -0.2400 
  2 C       -3.5688     1.5532    -0.2482 C.3   1 <1>   0.2556 
  3 C       -3.8745     1.8962     1.2273 C.3   1 <1>  -0.2400 
  4 C       -4.7207     0.7014    -0.8275 C.3   1 <1>  -0.2400 
  5 N       -2.2613     0.8133    -0.3563 N.pl3 1 <1>   0.3140 
  6 N       -1.1835     1.2764    -1.0931 N.2   1 <1>  -0.7068 
  7 C       -1.9581    -0.3897     0.2323 C.ar  1 <1>   0.1054 
  8 N       -2.7111    -1.2158     1.0129 N.ar  1 <1>  -0.5670 
  9 C       -2.1240    -2.3223     1.4239 C.ar  1 <1>   0.4700 
 10 N       -0.8414    -2.6735     1.1332 N.ar  1 <1>  -0.6200 
 11 C       -0.1300    -1.8642     0.3888 C.ar  1 <1>   0.4100 
 12 N        1.1449    -2.2663     0.1883 N.pl3 1 <1>  -0.9000 
 13 C       -0.6689    -0.6661    -0.1261 C.ar  1 <1>  -0.0000 
 14 C       -0.2424     0.3901    -0.9534 C.2   1 <1>   0.1078 
 15 C        1.0945     0.5417    -1.6586 C.3   1 <1>   0.1645 
 16 C        2.2073     0.4846    -0.6219 C.ar  1 <1>  -0.1435 
 17 C        3.3425    -0.2897    -0.8664 C.ar  1 <1>  -0.1500 
 18 C        2.1156     1.2019     0.5708 C.ar  1 <1>  -0.1500 
 19 C        3.1325     1.1232     1.5156 C.ar  1 <1>  -0.1500 
 20 C        4.2524     0.3358     1.2710 C.ar  1 <1>  -0.1500 
 21 C        4.3654    -0.3692     0.0756 C.ar  1 <1>  -0.1435 
 22 C        5.5814    -1.2291    -0.1932 C.3   1 <1>  -0.0965 
 23 H       -2.7196     3.5028    -0.6383 H     1 <1>   0.0800 
 24 H       -3.3243     2.6607    -2.0890 H     1 <1>   0.0800 
 25 H       -4.4780     3.4003    -0.9420 H     1 <1>   0.0800 
 26 H       -4.7948     2.4782     1.2766 H     1 <1>   0.0800 
 27 H       -3.9932     0.9753     1.7973 H     1 <1>   0.0800 
 28 H       -3.0405     2.4745     1.6269 H     1 <1>   0.0800 
 29 H       -4.4772     0.4488    -1.8601 H     1 <1>   0.0800 
 30 H       -4.8300    -0.2096    -0.2398 H     1 <1>   0.0800 
 31 H       -5.6461     1.2760    -0.7881 H     1 <1>   0.0800 
 32 H       -2.6863    -2.9887     2.0287 H     1 <1>   0.1500 
 33 H        1.4257    -3.0397     0.8028 H     1 <1>   0.4000 
 34 H        1.8400    -1.5083     0.0798 H     1 <1>   0.4000 
 35 H        1.1950    -0.2764    -2.3572 H     1 <1>   0.0800 
 36 H        1.1260     1.5071    -2.1444 H     1 <1>   0.0800 
 37 H        3.4280    -0.8291    -1.7756 H     1 <1>   0.1500 
 38 H        1.2665     1.8084     0.7645 H     1 <1>   0.1500 
 39 H        3.0534     1.6647     2.4234 H     1 <1>   0.1500 
 40 H        5.0213     0.2780     1.9984 H     1 <1>   0.1500 
 41 H        5.8032    -1.2005    -1.2603 H     1 <1>   0.0800 
 42 H        6.4268    -0.8348     0.3712 H     1 <1>   0.0800 
 43 H        5.3525    -2.2466     0.1234 H     1 <1>   0.0800 
@<TRIPOS>BOND
  1   1   2  1   
  2   1  23  1   
  3   1  24  1   
  4   1  25  1   
  5   2   3  1   
  6   2   4  1   
  7   2   5  1   
  8   3  26  1   
  9   3  27  1   
 10   3  28  1   
 11   4  29  1   
 12   4  30  1   
 13   4  31  1   
 14   5   6  1   
 15   5   7  1   
 16   6  14  2   
 17   7   8  ar  
 18   7  13  ar  
 19   8   9  ar  
 20   9  10  ar  
 21   9  32  1   
 22  10  11  ar  
 23  11  12  1   
 24  11  13  ar  
 25  12  33  1   
 26  12  34  1   
 27  13  14  1   
 28  14  15  1   
 29  15  16  1   
 30  15  35  1   
 31  15  36  1   
 32  16  17  ar  
 33  16  18  ar  
 34  17  21  ar  
 35  17  37  1   
 36  18  19  ar  
 37  18  38  1   
 38  19  20  ar  
 39  19  39  1   
 40  20  21  ar  
 41  20  40  1   
 42  21  22  1   
 43  22  41  1   
 44  22  42  1   
 45  22  43  1   
@<TRIPOS>SUBSTRUCTURE
  1 ****  13 GROUP 4 **** **** 0

# MOE 2019.01 (io_trps.svl 2018.10)
