@<TRIPOS>MOLECULE
UA5
23 23 1 0 0 
SMALL
USER_CHARGES


@<TRIPOS>ATOM
  1 N        2.1352    -0.9585     4.2081 N.am  1 <1>  -0.7570 
  2 H        1.2268    -0.8803     4.6553 H     1 <1>   0.4200 
  3 C        2.0480    -1.0143     2.8177 C.ar  1 <1>   0.1990 
  4 C        0.8138    -0.7652     2.2169 C.ar  1 <1>  -0.1500 
  5 H       -0.0357    -0.5758     2.8175 H     1 <1>   0.1500 
  6 C        0.7095    -0.7764     0.8294 C.ar  1 <1>  -0.1500 
  7 H       -0.2292    -0.5941     0.3740 H     1 <1>   0.1500 
  8 C        1.8303    -1.0321     0.0363 C.ar  1 <1>  -0.1435 
  9 C        1.7104    -1.0533    -1.4744 C.3   1 <1>  -0.0165 
 10 H        2.6579    -0.7688    -1.9344 H     1 <1>   0.0800 
 11 H        0.9293    -0.3662    -1.8033 H     1 <1>   0.0800 
 12 C        1.3471    -2.4927    -1.8562 C.3   1 <1>  -0.2400 
 13 H        2.1282    -3.1743    -1.5157 H     1 <1>   0.0800 
 14 H        1.2486    -2.5723    -2.9388 H     1 <1>   0.0800 
 15 H        0.4030    -2.7744    -1.3877 H     1 <1>   0.0800 
 16 C        3.0602    -1.2833     0.6487 C.ar  1 <1>  -0.1500 
 17 H        3.9156    -1.4882     0.0589 H     1 <1>   0.1500 
 18 C        3.1741    -1.2728     2.0351 C.ar  1 <1>  -0.1500 
 19 H        4.1062    -1.4606     2.5021 H     1 <1>   0.1500 
 20 S        2.5722    -2.3247     4.9726 S.o2  1 <1>   1.5880 
 21 O        2.2224    -2.0622     6.3455 O.co2 1 <1>  -0.8167 
 22 O        1.7748    -3.3599     4.3631 O.co2 1 <1>  -0.8167 
 23 O        3.9910    -2.4693     4.7499 O.co2 1 <1>  -0.8167 
@<TRIPOS>BOND
  1   1   2  1   
  2   1   3  1   
  3   1  20  am  
  4   3   4  ar  
  5   3  18  ar  
  6   4   5  1   
  7   4   6  ar  
  8   6   7  1   
  9   6   8  ar  
 10   8   9  1   
 11   8  16  ar  
 12   9  10  1   
 13   9  11  1   
 14   9  12  1   
 15  12  13  1   
 16  12  14  1   
 17  12  15  1   
 18  16  17  1   
 19  16  18  ar  
 20  18  19  1   
 21  20  21  ar  
 22  20  22  ar  
 23  20  23  ar  
@<TRIPOS>SUBSTRUCTURE
  1 ****   3 GROUP 4 **** **** 0

# MOE 2019.01 (io_trps.svl 2018.10)
