@<TRIPOS>MOLECULE
PHU
18 18 1 0 0 
SMALL
USER_CHARGES


@<TRIPOS>ATOM
  1 C       -2.1774    -0.0268     0.0738 C.2   1 <1>   0.6900 
  2 C        0.2738     0.3222    -0.1365 C.ar  1 <1>   0.1170 
  3 C        0.6798    -1.0157    -0.1334 C.ar  1 <1>  -0.1500 
  4 C        1.2149     1.3471    -0.0222 C.ar  1 <1>  -0.1500 
  5 C        2.5638     1.0312     0.1037 C.ar  1 <1>  -0.1500 
  6 C        2.0308    -1.3212    -0.0056 C.ar  1 <1>  -0.1500 
  7 C        2.9728    -0.3009     0.1131 C.ar  1 <1>  -0.1500 
  8 N       -1.0813     0.7003    -0.2807 N.am  1 <1>  -0.5470 
  9 N       -3.3353     0.5460    -0.2691 N.am  1 <1>  -0.8000 
 10 O       -2.1705    -1.0949     0.6564 O.2   1 <1>  -0.5700 
 11 H       -0.0297    -1.7953    -0.2317 H     1 <1>   0.1500 
 12 H        0.9049     2.3590    -0.0257 H     1 <1>   0.1500 
 13 H        3.2835     1.8042     0.1945 H     1 <1>   0.1500 
 14 H        2.3442    -2.3338     0.0012 H     1 <1>   0.1500 
 15 H        4.0011    -0.5391     0.2110 H     1 <1>   0.1500 
 16 H       -1.2736     1.6572    -0.5806 H     1 <1>   0.3700 
 17 H       -3.3514     1.2950    -0.9652 H     1 <1>   0.3700 
 18 H       -4.1729    -0.0304    -0.1262 H     1 <1>   0.3700 
@<TRIPOS>BOND
  1   1   8  am  
  2   1   9  am  
  3   1  10  2   
  4   2   3  ar  
  5   2   4  ar  
  6   2   8  1   
  7   3   6  ar  
  8   3  11  1   
  9   4   5  ar  
 10   4  12  1   
 11   5   7  ar  
 12   5  13  1   
 13   6   7  ar  
 14   6  14  1   
 15   7  15  1   
 16   8  16  1   
 17   9  17  1   
 18   9  18  1   
@<TRIPOS>SUBSTRUCTURE
  1 ****   2 GROUP 4 **** **** 0

# MOE 2019.01 (io_trps.svl 2018.10)
