@<TRIPOS>MOLECULE
3R6
19 19 1 0 0 
SMALL
USER_CHARGES


@<TRIPOS>ATOM
  1 C        4.0190    -1.2023     0.3646 C.3   1 <1>  -0.0100 
  2 H1       4.7058    -2.0475     0.4113 H     1 <1>   0.0800 
  3 H2       3.9968    -0.6599     1.3101 H     1 <1>   0.0800 
  4 H3       4.2543    -0.5498    -0.4766 H     1 <1>   0.0800 
  5 S        2.3517    -1.8849     0.0819 S.3   1 <1>  -0.3315 
  6 C        1.2345    -0.5317     0.0186 C.ar  1 <1>   0.1015 
  7 C        1.6597     0.7995     0.1615 C.ar  1 <1>  -0.1500 
  8 H        2.6801     1.0225     0.3125 H     1 <1>   0.1500 
  9 C        0.7360     1.8356     0.1044 C.ar  1 <1>  -0.1500 
 10 H        1.0423     2.8431     0.2107 H     1 <1>   0.1500 
 11 C       -0.6085     1.5502    -0.0950 C.ar  1 <1>   0.0825 
 12 O       -1.4905     2.5854    -0.1465 O.3   1 <1>  -0.5325 
 13 H       -2.3852     2.1200    -0.2978 H     1 <1>   0.4500 
 14 C       -1.0732     0.2336    -0.2426 C.ar  1 <1>  -0.1790 
 15 C       -0.1247    -0.7996    -0.1814 C.ar  1 <1>  -0.1500 
 16 H       -0.4436    -1.8054    -0.2887 H     1 <1>   0.1500 
 17 C       -2.4979    -0.0561    -0.4532 C.2   1 <1>   0.9790 
 18 O       -2.8919    -1.2443    -0.5813 O.co2 1 <1>  -0.9000 
 19 O       -3.3234     0.9104    -0.5039 O.co2 1 <1>  -0.9000 
@<TRIPOS>BOND
  1   1   2  1   
  2   1   3  1   
  3   1   4  1   
  4   1   5  1   
  5   5   6  1   
  6   6   7  ar  
  7   6  15  ar  
  8   7   8  1   
  9   7   9  ar  
 10   9  10  1   
 11   9  11  ar  
 12  11  12  1   
 13  11  14  ar  
 14  12  13  1   
 15  14  15  ar  
 16  14  17  1   
 17  15  16  1   
 18  17  18  ar  
 19  17  19  ar  
@<TRIPOS>SUBSTRUCTURE
  1 ****  14 GROUP 4 **** **** 0

# MOE 2019.01 (io_trps.svl 2018.10)
