@<TRIPOS>MOLECULE
5M0
19 19 1 0 0 
SMALL
USER_CHARGES


@<TRIPOS>ATOM
  1 O       -2.8004     0.0534    -0.2050 O.co2 1 <1>  -0.9000 
  2 C       -1.7708     0.7468     0.0757 C.2   1 <1>   0.9790 
  3 O       -1.9051     1.9785     0.3310 O.co2 1 <1>  -0.9000 
  4 C       -0.4225     0.1513     0.0765 C.ar  1 <1>  -0.1790 
  5 C        0.7091     0.9861     0.0802 C.ar  1 <1>  -0.1500 
  6 H        0.5612     2.0363     0.1094 H     1 <1>   0.1500 
  7 C        2.0028     0.4696     0.0413 C.ar  1 <1>  -0.1435 
  8 C        3.2007     1.3929     0.0431 C.3   1 <1>  -0.0965 
  9 H1       2.8573     2.4276     0.0462 H     1 <1>   0.0800 
 10 H2       3.7848     1.1921    -0.8546 H     1 <1>   0.0800 
 11 H3       3.7845     1.1863     0.9398 H     1 <1>   0.0800 
 12 C        2.1908    -0.9121     0.0022 C.ar  1 <1>  -0.1500 
 13 H        3.1707    -1.3117    -0.0277 H     1 <1>   0.1500 
 14 C        1.0971    -1.7662     0.0094 C.ar  1 <1>  -0.1500 
 15 H        1.2329    -2.8147    -0.0073 H     1 <1>   0.1500 
 16 C       -0.1936    -1.2406     0.0548 C.ar  1 <1>   0.1000 
 17 N       -1.2508    -2.1268     0.0776 N.pl3 1 <1>  -0.9000 
 18 H1      -1.1807    -2.8745    -0.6185 H     1 <1>   0.4000 
 19 H2      -2.1503    -1.5837    -0.0209 H     1 <1>   0.4000 
@<TRIPOS>BOND
  1   1   2  ar  
  2   2   3  ar  
  3   2   4  1   
  4   4   5  ar  
  5   4  16  ar  
  6   5   6  1   
  7   5   7  ar  
  8   7   8  1   
  9   7  12  ar  
 10   8   9  1   
 11   8  10  1   
 12   8  11  1   
 13  12  13  1   
 14  12  14  ar  
 15  14  15  1   
 16  14  16  ar  
 17  16  17  1   
 18  17  18  1   
 19  17  19  1   
@<TRIPOS>SUBSTRUCTURE
  1 ****   4 GROUP 4 **** **** 0

# MOE 2019.01 (io_trps.svl 2018.10)
