@<TRIPOS>MOLECULE
PXK
29 30 1 0 0 
SMALL
USER_CHARGES


@<TRIPOS>ATOM
  1 S       40.5115     5.1783   -52.4688 S.3   1 <1>  -0.1090 
  2 C       40.4709     6.8707   -52.1704 C.2   1 <1>   0.0820 
  3 C       39.4674     7.1354   -51.2956 C.2   1 <1>   0.2350 
  4 N       38.7055     6.1063   -50.8265 N.2   1 <1>  -0.6371 
  5 C       39.1623     5.0125   -51.3750 C.2   1 <1>   0.2281 
  6 H       38.7611     4.0480   -51.1922 H     1 <1>   0.1500 
  7 N       39.4742     8.5019   -51.0845 N.pl3 1 <1>  -0.0544 
  8 H       38.8214     8.9957   -50.4574 H     1 <1>   0.2700 
  9 C       40.4933     9.0689   -51.8406 C.2   1 <1>  -0.3016 
 10 H       40.6847    10.1122   -51.8277 H     1 <1>   0.1500 
 11 C       41.1262     8.0676   -52.5231 C.2   1 <1>  -0.1940 
 12 C       42.3032     8.2135   -53.4651 C.3   1 <1>   0.2210 
 13 C       43.4365     7.5476   -52.7877 C.1   1 <1>  -0.2000 
 14 C       44.3429     7.0034   -52.2374 C.1   1 <1>  -0.2000 
 15 C       45.4604     6.3207   -51.5461 C.3   1 <1>   0.2000 
 16 C       44.9949     4.9252   -51.0967 C.3   1 <1>  -0.2400 
 17 C       46.6487     6.1877   -52.5134 C.3   1 <1>  -0.2400 
 18 C       45.8769     7.1500   -50.3196 C.3   1 <1>  -0.2400 
 19 H       42.0887     7.6969   -54.3902 H     1 <1>   0.0800 
 20 H       42.5369     9.2604   -53.5987 H     1 <1>   0.0800 
 21 H       44.6940     4.3550   -51.9765 H     1 <1>   0.0800 
 22 H       45.8165     4.4238   -50.5853 H     1 <1>   0.0800 
 23 H       44.1448     5.0395   -50.4228 H     1 <1>   0.0800 
 24 H       46.9562     7.1849   -52.8305 H     1 <1>   0.0800 
 25 H       47.4692     5.6861   -52.0004 H     1 <1>   0.0800 
 26 H       46.3330     5.6042   -53.3792 H     1 <1>   0.0800 
 27 H       45.0192     7.2426   -49.6519 H     1 <1>   0.0800 
 28 H       46.6973     6.6442   -49.8107 H     1 <1>   0.0800 
 29 H       46.1932     8.1384   -50.6550 H     1 <1>   0.0800 
@<TRIPOS>BOND
  1   1   2  1   
  2   1   5  1   
  3   2   3  2   
  4   2  11  1   
  5   3   4  1   
  6   3   7  1   
  7   4   5  2   
  8   5   6  1   
  9   7   8  1   
 10   7   9  1   
 11   9  10  1   
 12   9  11  2   
 13  11  12  1   
 14  12  13  1   
 15  12  19  1   
 16  12  20  1   
 17  13  14  3   
 18  14  15  1   
 19  15  16  1   
 20  15  17  1   
 21  15  18  1   
 22  16  21  1   
 23  16  22  1   
 24  16  23  1   
 25  17  24  1   
 26  17  25  1   
 27  17  26  1   
 28  18  27  1   
 29  18  28  1   
 30  18  29  1   
@<TRIPOS>SUBSTRUCTURE
  1 ****  11 GROUP 4 **** **** 0

# MOE 2019.01 (io_trps.svl 2018.10)
