@<TRIPOS>MOLECULE
5B1
17 18 1 0 0 
SMALL
USER_CHARGES


@<TRIPOS>ATOM
  1 C        1.4552     0.2699     0.0525 C.ar  1 <1>   0.0000 
  2 C        0.1063     0.6696     0.1038 C.ar  1 <1>  -0.1500 
  3 C        2.7016     0.9286     0.0657 C.2   1 <1>   0.3718 
  4 N        2.9435     2.2833     0.1090 N.pl3 1 <1>  -0.8830 
  5 C       -0.8843    -0.2991     0.0656 C.ar  1 <1>   0.1110 
  6 C       -0.5476    -1.6738    -0.0204 C.ar  1 <1>  -0.1500 
  7 BR      -2.7037     0.2078     0.1302 Br    1 <1>  -0.1110 
  8 C        0.7768    -2.0733    -0.0661 C.ar  1 <1>  -0.1500 
  9 C        1.7570    -1.0694    -0.0265 C.ar  1 <1>  -0.1516 
 10 N        3.1288    -1.1254    -0.0510 N.pl3 1 <1>   0.2996 
 11 N        3.7086     0.1314    -0.0010 N.2   1 <1>  -0.7068 
 12 H       -0.1413     1.6964     0.1757 H     1 <1>   0.1500 
 13 H        2.2816     2.7915    -0.4864 H     1 <1>   0.4000 
 14 H        3.9210     2.4276    -0.1740 H     1 <1>   0.4000 
 15 H       -1.3220    -2.3968    -0.0481 H     1 <1>   0.1500 
 16 H        1.0414    -3.0982    -0.1280 H     1 <1>   0.1500 
 17 H        3.6765    -2.0020    -0.1024 H     1 <1>   0.2700 
@<TRIPOS>BOND
  1   1   2  ar  
  2   1   3  1   
  3   1   9  ar  
  4   2   5  ar  
  5   2  12  1   
  6   3   4  1   
  7   3  11  2   
  8   4  13  1   
  9   4  14  1   
 10   5   6  ar  
 11   5   7  1   
 12   6   8  ar  
 13   6  15  1   
 14   8   9  ar  
 15   8  16  1   
 16   9  10  1   
 17  10  11  1   
 18  10  17  1   
@<TRIPOS>SUBSTRUCTURE
  1 ****   1 GROUP 4 **** **** 0

# MOE 2019.01 (io_trps.svl 2018.10)
