@<TRIPOS>MOLECULE
0DF
28 30 1 0 0 
SMALL
USER_CHARGES


@<TRIPOS>ATOM
  1 O       -4.8239    -0.2502    -0.2200 O.2   1 <1>  -0.5700 
  2 C       -3.6184    -0.0277    -0.2673 C.2   1 <1>   0.6900 
  3 N       -2.5950    -0.9081     0.0240 N.am  1 <1>  -0.4771 
  4 C       -2.7782    -2.2911     0.4577 C.3   1 <1>   0.0601 
  5 C       -1.3879    -0.2376    -0.1602 C.ar  1 <1>   0.1170 
  6 C       -0.0703    -0.6302    -0.0111 C.ar  1 <1>  -0.1500 
  7 C        0.8966     0.3426    -0.2909 C.ar  1 <1>  -0.0000 
  8 C        0.4798     1.6351    -0.7010 C.ar  1 <1>   0.1600 
  9 N       -0.8048     1.9940    -0.8376 N.ar  1 <1>  -0.6200 
 10 C       -1.6981     1.0470    -0.5633 C.ar  1 <1>   0.4270 
 11 N       -3.0537     1.1579    -0.6243 N.am  1 <1>  -0.5470 
 12 C        2.3155     0.0328    -0.1626 C.ar  1 <1>  -0.0000 
 13 C        2.8633    -1.0791    -0.8138 C.ar  1 <1>  -0.1500 
 14 C        4.2155    -1.3775    -0.6902 C.ar  1 <1>  -0.1500 
 15 C        5.0398    -0.5687     0.0856 C.ar  1 <1>  -0.1500 
 16 C        4.5085     0.5395     0.7377 C.ar  1 <1>  -0.1500 
 17 C        3.1561     0.8386     0.6150 C.ar  1 <1>  -0.1500 
 18 H       -3.8403    -2.5000     0.4798 H     1 <1>   0.0800 
 19 H       -2.2733    -2.9252    -0.2583 H     1 <1>   0.0800 
 20 H       -2.3446    -2.3812     1.4445 H     1 <1>   0.0800 
 21 H        0.1888    -1.6073     0.3032 H     1 <1>   0.1500 
 22 H        1.2162     2.3672    -0.9180 H     1 <1>   0.1500 
 23 H       -3.5862     1.9887    -0.8920 H     1 <1>   0.3700 
 24 H        2.2428    -1.6963    -1.4113 H     1 <1>   0.1500 
 25 H        4.6206    -2.2212    -1.1885 H     1 <1>   0.1500 
 26 H        6.0711    -0.7967     0.1799 H     1 <1>   0.1500 
 27 H        5.1362     1.1552     1.3304 H     1 <1>   0.1500 
 28 H        2.7583     1.6806     1.1212 H     1 <1>   0.1500 
@<TRIPOS>BOND
  1   1   2  2   
  2   2   3  am  
  3   2  11  am  
  4   3   4  1   
  5   3   5  1   
  6   4  18  1   
  7   4  19  1   
  8   4  20  1   
  9   5   6  ar  
 10   5  10  ar  
 11   6   7  ar  
 12   6  21  1   
 13   7   8  ar  
 14   7  12  1   
 15   8   9  ar  
 16   8  22  1   
 17   9  10  ar  
 18  10  11  1   
 19  11  23  1   
 20  12  13  ar  
 21  12  17  ar  
 22  13  14  ar  
 23  13  24  1   
 24  14  15  ar  
 25  14  25  1   
 26  15  16  ar  
 27  15  26  1   
 28  16  17  ar  
 29  16  27  1   
 30  17  28  1   
@<TRIPOS>SUBSTRUCTURE
  1 ****   6 GROUP 4 **** **** 0

# MOE 2019.01 (io_trps.svl 2018.10)
