@<TRIPOS>MOLECULE
KLW
18 18 1 0 0 
SMALL
USER_CHARGES


@<TRIPOS>ATOM
  1 C        1.1201     0.6423    -0.4484 C.ar  1 <1>  -0.1790 
  2 C       -0.0409     1.3991    -0.1378 C.ar  1 <1>   0.0862 
  3 C       -1.1533     0.7281     0.3955 C.ar  1 <1>  -0.1500 
  4 H       -2.0271     1.2824     0.6254 H     1 <1>   0.1500 
  5 C       -1.1339    -0.6417     0.6238 C.ar  1 <1>  -0.1500 
  6 H       -1.9857    -1.1249     1.0286 H     1 <1>   0.1500 
  7 C        0.0031    -1.3781     0.3147 C.ar  1 <1>  -0.1500 
  8 H        0.0217    -2.4243     0.4816 H     1 <1>   0.1500 
  9 C        1.1149    -0.7417    -0.2194 C.ar  1 <1>  -0.1500 
 10 H        1.9796    -1.3050    -0.4676 H     1 <1>   0.1500 
 11 C        2.3231     1.2353    -1.0213 C.2   1 <1>   0.9790 
 12 O        2.9982     2.0568    -0.3398 O.co2 1 <1>  -0.9000 
 13 O        2.6847     0.8961    -2.1744 O.co2 1 <1>  -0.9000 
 14 N        0.8570     3.7007    -0.2340 N.am  1 <1>  -0.8000 
 15 H1       0.7417     4.6476    -0.6009 H     1 <1>   0.3700 
 16 H2       1.8225     3.2967    -0.1691 H     1 <1>   0.3700 
 17 C       -0.1774     2.8499    -0.3599 C.2   1 <1>   0.5438 
 18 O1      -1.2417     3.3979    -0.6195 O.2   1 <1>  -0.5700 
@<TRIPOS>BOND
  1   1   2  ar  
  2   1   9  ar  
  3   1  11  1   
  4   2   3  ar  
  5   2  17  1   
  6   3   4  1   
  7   3   5  ar  
  8   5   6  1   
  9   5   7  ar  
 10   7   8  1   
 11   7   9  ar  
 12   9  10  1   
 13  11  12  ar  
 14  11  13  ar  
 15  14  15  1   
 16  14  16  1   
 17  14  17  am  
 18  17  18  2   
@<TRIPOS>SUBSTRUCTURE
  1 ****   2 GROUP 4 **** **** 0

# MOE 2019.01 (io_trps.svl 2018.10)
