@<TRIPOS>MOLECULE
173
16 16 1 0 0 
SMALL
USER_CHARGES


@<TRIPOS>ATOM
  1 C        0.8451     0.6146     0.4002 C.2   1 <1>   0.3368 
  2 C        1.1558     1.6312    -0.6400 C.2   1 <1>   0.9470 
  3 O        0.2022     2.2225    -1.2429 O.co2 1 <1>  -0.9000 
  4 O        1.4841     0.5421     1.4650 O.2   1 <1>  -0.5700 
  5 C       -0.2505    -0.3433     0.1893 C.ar  1 <1>   0.0862 
  6 C       -0.7694    -1.0671     1.2766 C.ar  1 <1>  -0.1500 
  7 H       -0.3707    -0.9056     2.2457 H     1 <1>   0.1500 
  8 C       -1.7948    -1.9901     1.1001 C.ar  1 <1>  -0.1500 
  9 H       -2.1730    -2.5256     1.9328 H     1 <1>   0.1500 
 10 C       -2.3238    -2.2101    -0.1674 C.ar  1 <1>  -0.1500 
 11 H       -3.1063    -2.9121    -0.3025 H     1 <1>   0.1500 
 12 C       -1.8243    -1.5051    -1.2577 C.ar  1 <1>  -0.1500 
 13 H       -2.2266    -1.6674    -2.2247 H     1 <1>   0.1500 
 14 C       -0.7978    -0.5831    -1.0833 C.ar  1 <1>  -0.1500 
 15 H       -0.4307    -0.0543    -1.9267 H     1 <1>   0.1500 
 16 O        2.3548     1.8687    -0.9871 O.co2 1 <1>  -0.9000 
@<TRIPOS>BOND
  1   1   2  1   
  2   1   4  2   
  3   1   5  1   
  4   2   3  ar  
  5   2  16  ar  
  6   5   6  ar  
  7   5  14  ar  
  8   6   7  1   
  9   6   8  ar  
 10   8   9  1   
 11   8  10  ar  
 12  10  11  1   
 13  10  12  ar  
 14  12  13  1   
 15  12  14  ar  
 16  14  15  1   
@<TRIPOS>SUBSTRUCTURE
  1 ****   5 GROUP 4 **** **** 0

# MOE 2019.01 (io_trps.svl 2018.10)
