@<TRIPOS>MOLECULE
HBX
14 14 1 0 0 
SMALL
USER_CHARGES


@<TRIPOS>ATOM
  1 C        1.9389     0.5248     0.0015 C.2   1 <1>   0.4238 
  2 O        2.7804    -0.3466     0.0017 O.2   1 <1>  -0.5700 
  3 C        0.5108     0.2408     0.0006 C.ar  1 <1>   0.0862 
  4 C       -0.4166     1.2932     0.0004 C.ar  1 <1>  -0.1500 
  5 C       -1.7823     1.0309     0.0002 C.ar  1 <1>  -0.1500 
  6 C       -2.2400    -0.2838     0.0000 C.ar  1 <1>  -0.1500 
  7 C       -1.3309    -1.3379    -0.0002 C.ar  1 <1>  -0.1500 
  8 C        0.0350    -1.0789     0.0000 C.ar  1 <1>  -0.1500 
  9 H        2.2610     1.5353     0.0022 H     1 <1>   0.0600 
 10 H       -0.0774     2.2974     0.0005 H     1 <1>   0.1500 
 11 H       -2.4777     1.8319     0.0003 H     1 <1>   0.1500 
 12 H       -3.2818    -0.4829    -0.0001 H     1 <1>   0.1500 
 13 H       -1.6804    -2.3393    -0.0006 H     1 <1>   0.1500 
 14 H        0.7252    -1.8848    -0.0001 H     1 <1>   0.1500 
@<TRIPOS>BOND
  1   1   2  2   
  2   1   3  1   
  3   1   9  1   
  4   3   4  ar  
  5   3   8  ar  
  6   4   5  ar  
  7   4  10  1   
  8   5   6  ar  
  9   5  11  1   
 10   6   7  ar  
 11   6  12  1   
 12   7   8  ar  
 13   7  13  1   
 14   8  14  1   
@<TRIPOS>SUBSTRUCTURE
  1 ****   3 GROUP 4 **** **** 0

# MOE 2019.01 (io_trps.svl 2018.10)
