@<TRIPOS>MOLECULE
3SK
17 17 1 0 0 
SMALL
USER_CHARGES


@<TRIPOS>ATOM
  1 O      -20.2728    11.2660    -0.9541 O.co2 1 <1>  -0.9000 
  2 C      -20.8913    10.3963    -0.2767 C.2   1 <1>   0.9790 
  3 O      -20.2726     9.3898     0.1733 O.co2 1 <1>  -0.9000 
  4 C      -22.3450    10.5119    -0.0246 C.ar  1 <1>  -0.1790 
  5 C      -23.0965     9.3292     0.0767 C.ar  1 <1>  -0.1500 
  6 H      -22.5976     8.3974    -0.0179 H     1 <1>   0.1500 
  7 C      -24.4673     9.3592     0.2973 C.ar  1 <1>  -0.1500 
  8 H      -25.0100     8.4526     0.3667 H     1 <1>   0.1500 
  9 C      -25.1218    10.5770     0.4267 C.ar  1 <1>  -0.1500 
 10 H      -26.1674    10.6031     0.5922 H     1 <1>   0.1500 
 11 C      -24.3995    11.7621     0.3420 C.ar  1 <1>  -0.1500 
 12 H      -24.9060    12.6859     0.4454 H     1 <1>   0.1500 
 13 C      -23.0221    11.7451     0.1255 C.ar  1 <1>  -0.1435 
 14 C      -22.2833    13.0689     0.0588 C.3   1 <1>  -0.0965 
 15 H1     -21.4083    13.0043     0.7063 H     1 <1>   0.0800 
 16 H2     -22.9330    13.8774     0.3885 H     1 <1>   0.0800 
 17 H3     -21.9722    13.2258    -0.9745 H     1 <1>   0.0800 
@<TRIPOS>BOND
  1   1   2  ar  
  2   2   3  ar  
  3   2   4  1   
  4   4   5  ar  
  5   4  13  ar  
  6   5   6  1   
  7   5   7  ar  
  8   7   8  1   
  9   7   9  ar  
 10   9  10  1   
 11   9  11  ar  
 12  11  12  1   
 13  11  13  ar  
 14  13  14  1   
 15  14  15  1   
 16  14  16  1   
 17  14  17  1   
@<TRIPOS>SUBSTRUCTURE
  1 ****   4 GROUP 4 **** **** 0

# MOE 2019.01 (io_trps.svl 2018.10)
