@<TRIPOS>MOLECULE
17Y
17 17 1 0 0 
SMALL
USER_CHARGES


@<TRIPOS>ATOM
  1 OAA    -33.5065   -32.0110   -28.5434 O.3   1 Q17Y  -0.6800 
  2 HAA    -33.4002   -31.0614   -28.4375 H     1 Q17Y   0.4000 
  3 CAF    -34.6565   -32.4254   -27.8217 C.3   1 Q17Y   0.2000 
  4 HAF    -34.5333   -32.2236   -26.7557 H     1 Q17Y   0.0800 
  5 CAD    -35.9166   -31.7216   -28.3307 C.3   1 Q17Y  -0.1600 
  6 HAD1   -36.1137   -30.8205   -27.7491 H     1 Q17Y   0.0800 
  7 HAD2   -35.7996   -31.4680   -29.3861 H     1 Q17Y   0.0800 
  8 CAC    -37.0617   -32.7351   -28.1804 C.3   1 Q17Y  -0.1600 
  9 HAC1   -37.5086   -32.9229   -29.1593 H     1 Q17Y   0.0800 
 10 HAC2   -37.8259   -32.3728   -27.4904 H     1 Q17Y   0.0800 
 11 CAE    -36.4251   -34.0278   -27.6524 C.3   1 Q17Y  -0.1600 
 12 HAE1   -36.8765   -34.9107   -28.1084 H     1 Q17Y   0.0800 
 13 HAE2   -36.5325   -34.0753   -26.5682 H     1 Q17Y   0.0800 
 14 CAG    -34.9439   -33.9233   -28.0051 C.3   1 Q17Y   0.2000 
 15 HAG    -34.3281   -34.5275   -27.3368 H     1 Q17Y   0.0800 
 16 OAB    -34.7475   -34.3101   -29.3507 O.3   1 Q17Y  -0.6800 
 17 HAB    -34.0503   -33.7227   -29.6722 H     1 Q17Y   0.4000 
@<TRIPOS>BOND
  1   1   2  1   
  2   1   3  1   
  3   3   4  1   
  4   3   5  1   
  5   3  14  1   
  6   5   6  1   
  7   5   7  1   
  8   5   8  1   
  9   8   9  1   
 10   8  10  1   
 11   8  11  1   
 12  11  12  1   
 13  11  13  1   
 14  11  14  1   
 15  14  15  1   
 16  14  16  1   
 17  16  17  1   
@<TRIPOS>SUBSTRUCTURE
  1 Q17Y   3 GROUP 4 A **** 0

# MOE 2019.01 (io_trps.svl 2018.10)
