@<TRIPOS>MOLECULE
3VO
33 35 1 0 0 
SMALL
USER_CHARGES


@<TRIPOS>ATOM
  1 C        0.9567     0.0803    -0.3040 C.ar  1 <1>  -0.1435 
  2 N       -2.4547    -2.5633    -1.3400 N.pl3 1 <1>  -0.8500 
  3 C        1.8637     0.9960     0.2632 C.ar  1 <1>   0.1900 
  4 C        2.8431    -1.4460    -0.5853 C.ar  1 <1>  -0.1500 
  5 C       -1.2040     0.6993     0.9471 C.3   1 <1>  -0.0800 
  6 C        3.6826    -0.5014    -0.0133 C.ar  1 <1>   0.1900 
  7 C       -0.5587     0.4067    -0.4517 C.3   1 <1>   0.3895 
  8 O       -2.0910     2.0858    -1.4018 O.3   1 <1>  -0.5600 
  9 C       -2.6339     2.4536    -0.1446 C.3   1 <1>   0.1200 
 10 C       -2.6454     1.2311     0.7750 C.3   1 <1>  -0.1600 
 11 C       -0.7173     1.6686    -1.3626 C.3   1 <1>   0.1200 
 12 C        1.4869    -1.1543    -0.7309 C.ar  1 <1>  -0.1500 
 13 C       -1.0856    -0.5274     1.8690 C.3   1 <1>   0.0700 
 14 S       -2.0338    -1.8981     1.1340 S.3   1 <1>  -0.3710 
 15 C       -1.8608    -1.6341    -0.5653 C.2   1 <1>   0.6410 
 16 N       -1.2406    -0.7040    -1.1551 N.2   1 <1>  -0.6960 
 17 C        3.2170     0.7276     0.4178 C.ar  1 <1>  -0.1500 
 18 F        1.4623     2.2119     0.6994 F     1 <1>  -0.1900 
 19 F        4.9945    -0.7905     0.1269 F     1 <1>  -0.1900 
 20 H       -2.6039    -3.4613    -0.8708 H     1 <1>   0.4000 
 21 H       -2.0798    -2.5608    -2.2936 H     1 <1>   0.4000 
 22 H        3.2339    -2.3769    -0.9076 H     1 <1>   0.1500 
 23 H       -0.6646     1.4968     1.4508 H     1 <1>   0.0800 
 24 H       -2.0465     3.2589     0.3011 H     1 <1>   0.0800 
 25 H       -3.6573     2.8043    -0.2880 H     1 <1>   0.0800 
 26 H       -3.2991     0.4795     0.3320 H     1 <1>   0.0800 
 27 H       -3.0533     1.5148     1.7452 H     1 <1>   0.0800 
 28 H       -0.1109     2.4970    -1.0060 H     1 <1>   0.0800 
 29 H       -0.3942     1.4108    -2.3711 H     1 <1>   0.0800 
 30 H        0.8668    -1.8896    -1.1749 H     1 <1>   0.1500 
 31 H       -0.0451    -0.8359     1.9765 H     1 <1>   0.0800 
 32 H       -1.5056    -0.3034     2.8500 H     1 <1>   0.0800 
 33 H        3.8722     1.4381     0.8495 H     1 <1>   0.1500 
@<TRIPOS>BOND
  1   1   3  ar  
  2   1   7  1   
  3   1  12  ar  
  4   2  15  1   
  5   2  20  1   
  6   2  21  1   
  7   3  17  ar  
  8   3  18  1   
  9   4   6  ar  
 10   4  12  ar  
 11   4  22  1   
 12   5   7  1   
 13   5  10  1   
 14   5  13  1   
 15   5  23  1   
 16   6  17  ar  
 17   6  19  1   
 18   7  11  1   
 19   7  16  1   
 20   8   9  1   
 21   8  11  1   
 22   9  10  1   
 23   9  24  1   
 24   9  25  1   
 25  10  26  1   
 26  10  27  1   
 27  11  28  1   
 28  11  29  1   
 29  12  30  1   
 30  13  14  1   
 31  13  31  1   
 32  13  32  1   
 33  14  15  1   
 34  15  16  2   
 35  17  33  1   
@<TRIPOS>SUBSTRUCTURE
  1 ****   7 GROUP 4 **** **** 0

# MOE 2019.01 (io_trps.svl 2018.10)
