@<TRIPOS>MOLECULE
KJU
18 19 1 0 0 
SMALL
USER_CHARGES


@<TRIPOS>ATOM
  1 C        1.8569    -1.3514    -0.1046 C.ar  1 <1>  -0.1500 
  2 C        0.5728    -1.8960    -0.0887 C.ar  1 <1>  -0.1500 
  3 C       -0.5281    -1.0473    -0.0756 C.ar  1 <1>   0.0825 
  4 C       -0.3494     0.3421    -0.0899 C.ar  1 <1>   0.1170 
  5 C        0.9271     0.8944    -0.1060 C.ar  1 <1>  -0.1500 
  6 C        2.0309     0.0385    -0.1113 C.ar  1 <1>   0.1770 
  7 CL       3.6286     0.7012    -0.1292 Cl    1 <1>  -0.1770 
  8 N       -1.4846     1.1774    -0.1134 N.am  1 <1>  -0.5470 
  9 C       -2.7399     0.6824     0.0344 C.2   1 <1>   0.5690 
 10 O       -3.6518     1.4640    -0.1247 O.2   1 <1>  -0.5700 
 11 C       -2.9424    -0.7780     0.4247 C.3   1 <1>   0.1810 
 12 O       -1.8039    -1.5860    -0.0628 O.3   1 <1>  -0.3625 
 13 H        2.7073    -1.9835    -0.1126 H     1 <1>   0.1500 
 14 H        0.4291    -2.9460    -0.0859 H     1 <1>   0.1500 
 15 H        1.0678     1.9430    -0.1161 H     1 <1>   0.1500 
 16 H       -1.4150     2.1836    -0.3125 H     1 <1>   0.3700 
 17 H       -2.9562    -0.8252     1.5040 H     1 <1>   0.0800 
 18 H       -3.8599    -1.1304    -0.0244 H     1 <1>   0.0800 
@<TRIPOS>BOND
  1   1   2  ar  
  2   1   6  ar  
  3   1  13  1   
  4   2   3  ar  
  5   2  14  1   
  6   3   4  ar  
  7   3  12  1   
  8   4   5  ar  
  9   4   8  1   
 10   5   6  ar  
 11   5  15  1   
 12   6   7  1   
 13   8   9  am  
 14   8  16  1   
 15   9  10  2   
 16   9  11  1   
 17  11  12  1   
 18  11  17  1   
 19  11  18  1   
@<TRIPOS>SUBSTRUCTURE
  1 ****   4 GROUP 4 **** **** 0

# MOE 2019.01 (io_trps.svl 2018.10)
