@<TRIPOS>MOLECULE
PCR
16 16 1 0 0 
SMALL
USER_CHARGES


@<TRIPOS>ATOM
  1 C       -0.0146     0.0598     2.9330 C.3   1 <1>  -0.0965 
  2 C       -0.0121    -0.0451     1.4234 C.ar  1 <1>  -0.1435 
  3 C        1.1834     0.0966     0.7164 C.ar  1 <1>  -0.1500 
  4 C        1.1929     0.0105    -0.6725 C.ar  1 <1>  -0.1500 
  5 C       -1.2033    -0.2669     0.7292 C.ar  1 <1>  -0.1500 
  6 C       -1.2025    -0.3544    -0.6600 C.ar  1 <1>  -0.1500 
  7 C       -0.0005    -0.2150    -1.3471 C.ar  1 <1>   0.0825 
  8 O        0.0177    -0.2979    -2.7038 O.3   1 <1>  -0.5325 
  9 H        0.8913    -0.4100     3.3165 H     1 <1>   0.0800 
 10 H       -0.0392     1.1172     3.1971 H     1 <1>   0.0800 
 11 H       -0.8930    -0.4526     3.3258 H     1 <1>   0.0800 
 12 H        2.0901     0.2713     1.2366 H     1 <1>   0.1500 
 13 H        2.0954     0.1153    -1.2164 H     1 <1>   0.1500 
 14 H       -2.1148    -0.3689     1.2603 H     1 <1>   0.1500 
 15 H       -2.1068    -0.5241    -1.1829 H     1 <1>   0.1500 
 16 H       -0.8818    -0.4565    -3.0445 H     1 <1>   0.4500 
@<TRIPOS>BOND
  1   1   2  1   
  2   1   9  1   
  3   1  10  1   
  4   1  11  1   
  5   2   3  ar  
  6   2   5  ar  
  7   3   4  ar  
  8   3  12  1   
  9   4   7  ar  
 10   4  13  1   
 11   5   6  ar  
 12   5  14  1   
 13   6   7  ar  
 14   6  15  1   
 15   7   8  1   
 16   8  16  1   
@<TRIPOS>SUBSTRUCTURE
  1 ****   2 GROUP 4 **** **** 0

# MOE 2019.01 (io_trps.svl 2018.10)
