@<TRIPOS>MOLECULE
1P7
17 18 1 0 0 
SMALL
USER_CHARGES


@<TRIPOS>ATOM
  1 O       -2.3237     2.1159     0.0041 O.2   1 <1>  -0.5700 
  2 C       -2.0381     0.9313     0.0038 C.2   1 <1>   0.5438 
  3 N       -2.9934    -0.0273     0.0059 N.am  1 <1>  -0.7301 
  4 C       -2.4493    -1.4068     0.0045 C.3   1 <1>   0.2836 
  5 C       -0.7574     0.2770     0.0014 C.ar  1 <1>   0.0862 
  6 C        0.5267     0.8178    -0.0012 C.ar  1 <1>  -0.1500 
  7 C        1.6168    -0.0534    -0.0031 C.ar  1 <1>   0.1770 
  8 CL       3.2278     0.5817    -0.0063 Cl    1 <1>  -0.1770 
  9 C       -0.9614    -1.0922     0.0019 C.ar  1 <1>  -0.1435 
 10 C        0.1221    -1.9647     0.0002 C.ar  1 <1>  -0.1500 
 11 C        1.4157    -1.4412    -0.0023 C.ar  1 <1>  -0.1500 
 12 H       -2.7187    -1.9230     0.9173 H     1 <1>   0.0800 
 13 H        0.6710     1.8673    -0.0018 H     1 <1>   0.1500 
 14 H       -0.0308    -3.0145     0.0007 H     1 <1>   0.1500 
 15 H        2.2555    -2.0877    -0.0037 H     1 <1>   0.1500 
 16 H       -3.9865     0.2399     0.0073 H     1 <1>   0.3700 
 17 H       -2.7218    -1.9222    -0.9079 H     1 <1>   0.0800 
@<TRIPOS>BOND
  1   1   2  2   
  2   2   3  am  
  3   2   5  1   
  4   3   4  1   
  5   3  16  1   
  6   4   9  1   
  7   4  12  1   
  8   4  17  1   
  9   5   6  ar  
 10   5   9  ar  
 11   6   7  ar  
 12   6  13  1   
 13   7   8  1   
 14   7  11  ar  
 15   9  10  ar  
 16  10  11  ar  
 17  10  14  1   
 18  11  15  1   
@<TRIPOS>SUBSTRUCTURE
  1 ****   5 GROUP 4 **** **** 0

# MOE 2019.01 (io_trps.svl 2018.10)
