@<TRIPOS>MOLECULE
XZ8
32 34 1 0 0 
SMALL
USER_CHARGES


@<TRIPOS>ATOM
  1 C      -72.7035    89.9316    -2.9383 C.3   1 <1>  -0.1790 
  2 C      -73.1523    88.9482    -1.8793 C.2   1 <1>   0.5180 
  3 O      -74.3086    88.5852    -1.8218 O.2   1 <1>  -0.5700 
  4 N      -72.1908    88.4629    -0.9502 N.pl3 1 <1>   0.2942 
  5 C      -70.8435    88.8548    -0.9061 C.2   1 <1>  -0.3016 
  6 C      -70.1940    88.1959     0.0949 C.2   1 <1>  -0.0460 
  7 C      -68.7820    88.3448     0.4420 C.2   1 <1>   0.0604 
  8 C      -68.0777    89.5254     0.4670 C.2   1 <1>  -0.0382 
  9 C      -68.5217    90.9427     0.1853 C.3   1 <1>  -0.1018 
 10 N      -66.7972    89.2798     0.8036 N.pl3 1 <1>  -0.5200 
 11 H      -66.0114    89.9561     0.9073 H     1 <1>   0.4000 
 12 N      -66.6872    87.8690     1.0147 N.am  1 <1>  -0.4100 
 13 H      -65.8314    87.3563     1.2850 H     1 <1>   0.3700 
 14 C      -67.8914    87.2929     0.7964 C.2   1 <1>   0.6156 
 15 O      -68.0257    86.0528     0.9125 O.2   1 <1>  -0.5700 
 16 C      -71.1533    87.3506     0.7243 C.ar  1 <1>   0.0000 
 17 C      -71.0710    86.4611     1.8080 C.ar  1 <1>  -0.1500 
 18 C      -72.2032    85.7687     2.2117 C.ar  1 <1>  -0.1500 
 19 C      -73.4323    85.9509     1.5477 C.ar  1 <1>  -0.1500 
 20 C      -73.5304    86.8268     0.4789 C.ar  1 <1>  -0.1500 
 21 C      -72.3763    87.5198     0.0833 C.ar  1 <1>  -0.1516 
 22 H      -72.3389    90.8108    -2.4272 H     1 <1>   0.0800 
 23 H      -71.9271    89.4508    -3.5159 H     1 <1>   0.0800 
 24 H      -73.5670    90.1586    -3.5481 H     1 <1>   0.0800 
 25 H      -70.4520    89.5596    -1.5911 H     1 <1>   0.1500 
 26 H      -67.9244    91.6058     0.7959 H     1 <1>   0.0800 
 27 H      -68.3622    91.1224    -0.8686 H     1 <1>   0.0800 
 28 H      -69.5670    91.0162     0.4513 H     1 <1>   0.0800 
 29 H      -70.1505    86.3171     2.3113 H     1 <1>   0.1500 
 30 H      -72.1450    85.0935     3.0264 H     1 <1>   0.1500 
 31 H      -74.2861    85.4120     1.8699 H     1 <1>   0.1500 
 32 H      -74.4553    86.9636    -0.0202 H     1 <1>   0.1500 
@<TRIPOS>BOND
  1   1   2  1   
  2   1  22  1   
  3   1  23  1   
  4   1  24  1   
  5   2   3  2   
  6   2   4  1   
  7   4   5  1   
  8   4  21  1   
  9   5   6  2   
 10   5  25  1   
 11   6   7  1   
 12   6  16  1   
 13   7   8  2   
 14   7  14  1   
 15   8   9  1   
 16   8  10  1   
 17   9  26  1   
 18   9  27  1   
 19   9  28  1   
 20  10  11  1   
 21  10  12  1   
 22  12  13  1   
 23  12  14  am  
 24  14  15  2   
 25  16  17  ar  
 26  16  21  ar  
 27  17  18  ar  
 28  17  29  1   
 29  18  19  ar  
 30  18  30  1   
 31  19  20  ar  
 32  19  31  1   
 33  20  21  ar  
 34  20  32  1   
@<TRIPOS>SUBSTRUCTURE
  1 ****   6 GROUP 4 **** **** 0

# MOE 2019.01 (io_trps.svl 2018.10)
