@<TRIPOS>MOLECULE
TSA
26 27 1 0 0 
SMALL
USER_CHARGES


@<TRIPOS>ATOM
  1 C        0.1591     0.0080    -1.1109 C.3   1 <1>   0.0322 
  2 C       -0.0203    -1.3628    -0.4686 C.2   1 <1>  -0.2882 
  3 H       -0.6067    -2.0504    -1.0257 H     1 <1>   0.1500 
  4 C        0.4627    -1.6716     0.7434 C.2   1 <1>  -0.2882 
  5 H        0.2749    -2.6143     1.1857 H     1 <1>   0.1500 
  6 C        1.2630    -0.7132     1.6006 C.3   1 <1>   0.3382 
  7 H        0.8857    -0.6637     2.6137 H     1 <1>   0.0800 
  8 O        2.5930    -1.2758     1.5506 O.3   1 <1>  -0.6800 
  9 H        2.7022    -1.6249     0.6506 H     1 <1>   0.4000 
 10 C        1.3425     0.7178     0.9766 C.3   1 <1>   0.2000 
 11 H        2.2522     1.1903     1.3447 H     1 <1>   0.0800 
 12 C        1.4450     0.6695    -0.5514 C.3   1 <1>  -0.1600 
 13 H        1.5403     1.6816    -0.9444 H     1 <1>   0.0800 
 14 H        2.3178     0.0911    -0.8523 H     1 <1>   0.0800 
 15 O        0.1973     1.5701     1.3283 O.3   1 <1>  -0.5600 
 16 C       -1.1781     1.2514     0.7639 C.3   1 <1>   0.0940 
 17 H       -1.7697     2.1529     0.7981 H     1 <1>   0.0800 
 18 C       -1.0697     0.8911    -0.7533 C.3   1 <1>  -0.1600 
 19 H       -1.9858     0.3958    -1.0801 H     1 <1>   0.0800 
 20 H       -0.9784     1.8231    -1.3096 H     1 <1>   0.0800 
 21 C        0.2640    -0.1223    -2.6620 C.2   1 <1>   0.9060 
 22 O        1.2286     0.4202    -3.2578 O.co2 1 <1>  -0.9000 
 23 O       -0.6276    -0.7514    -3.2809 O.co2 1 <1>  -0.9000 
 24 C       -2.0277     0.2432     1.5908 C.2   1 <1>   0.9060 
 25 O       -1.5461    -0.3660     2.5793 O.co2 1 <1>  -0.9000 
 26 O       -3.2444     0.1598     1.2903 O.co2 1 <1>  -0.9000 
@<TRIPOS>BOND
  1   1   2  1   
  2   1  12  1   
  3   1  18  1   
  4   1  21  1   
  5   2   3  1   
  6   2   4  2   
  7   4   5  1   
  8   4   6  1   
  9   6   7  1   
 10   6   8  1   
 11   6  10  1   
 12   8   9  1   
 13  10  11  1   
 14  10  12  1   
 15  10  15  1   
 16  12  13  1   
 17  12  14  1   
 18  15  16  1   
 19  16  17  1   
 20  16  18  1   
 21  16  24  1   
 22  18  19  1   
 23  18  20  1   
 24  21  22  ar  
 25  21  23  ar  
 26  24  25  ar  
 27  24  26  ar  
@<TRIPOS>SUBSTRUCTURE
  1 ****   1 GROUP 4 **** **** 0

# MOE 2019.01 (io_trps.svl 2018.10)
