@<TRIPOS>MOLECULE
0W8
22 23 1 0 0 
SMALL
USER_CHARGES


@<TRIPOS>ATOM
  1 O       -2.4468    -1.6097    -0.1645 O.2   1 <1>  -0.5700 
  2 C       -1.3280    -1.1028    -0.1279 C.2   1 <1>   0.6900 
  3 N       -1.0033     0.2242    -0.3018 N.am  1 <1>  -0.4771 
  4 C       -1.9836     1.2751    -0.5444 C.3   1 <1>   0.1401 
  5 C       -2.2784     1.8891     0.8311 C.3   1 <1>  -0.2400 
  6 N       -0.1679    -1.7770     0.0984 N.am  1 <1>  -0.5470 
  7 C        0.8971    -0.8913     0.0746 C.ar  1 <1>   0.1170 
  8 C        0.3793     0.3632    -0.1758 C.ar  1 <1>   0.1170 
  9 C        2.2615    -1.0963     0.2537 C.ar  1 <1>  -0.1500 
 10 C        3.1018     0.0154     0.1721 C.ar  1 <1>  -0.1500 
 11 C        2.5763     1.2963    -0.0833 C.ar  1 <1>  -0.1500 
 12 C        1.2041     1.4822    -0.2604 C.ar  1 <1>  -0.1500 
 13 H       -1.5582     2.0271    -1.1956 H     1 <1>   0.0800 
 14 H       -2.8927     0.8423    -0.9442 H     1 <1>   0.0800 
 15 H       -2.6862     1.1104     1.4778 H     1 <1>   0.0800 
 16 H       -1.3544     2.2894     1.2493 H     1 <1>   0.0800 
 17 H       -3.0096     2.6856     0.6953 H     1 <1>   0.0800 
 18 H       -0.1567    -2.7892     0.2584 H     1 <1>   0.3700 
 19 H        2.6438    -2.0648     0.4455 H     1 <1>   0.1500 
 20 H        4.1473    -0.1038     0.3037 H     1 <1>   0.1500 
 21 H        3.2319     2.1278    -0.1413 H     1 <1>   0.1500 
 22 H        0.7985     2.4408    -0.4523 H     1 <1>   0.1500 
@<TRIPOS>BOND
  1   1   2  2   
  2   2   3  am  
  3   2   6  am  
  4   3   4  1   
  5   3   8  1   
  6   4   5  1   
  7   4  13  1   
  8   4  14  1   
  9   5  15  1   
 10   5  16  1   
 11   5  17  1   
 12   6   7  1   
 13   6  18  1   
 14   7   8  ar  
 15   7   9  ar  
 16   8  12  ar  
 17   9  10  ar  
 18   9  19  1   
 19  10  11  ar  
 20  10  20  1   
 21  11  12  ar  
 22  11  21  1   
 23  12  22  1   
@<TRIPOS>SUBSTRUCTURE
  1 ****   8 GROUP 4 **** **** 0

# MOE 2019.01 (io_trps.svl 2018.10)
