@<TRIPOS>MOLECULE
NBZ
14 14 1 0 0 
SMALL
USER_CHARGES


@<TRIPOS>ATOM
  1 C      -86.3658     3.1040     0.0021 C.ar  1 <1>  -0.1500 
  2 C      -87.7572     3.0945    -0.0013 C.ar  1 <1>  -0.1500 
  3 C      -88.4482     1.8820    -0.0030 C.ar  1 <1>  -0.1500 
  4 C      -87.7577     0.6693    -0.0016 C.ar  1 <1>  -0.1500 
  5 C      -86.3662     0.6593     0.0008 C.ar  1 <1>  -0.1500 
  6 C      -85.6846     1.8816     0.0027 C.ar  1 <1>   0.1330 
  7 N      -84.2237     1.8813     0.0051 N.pl3 1 <1>   0.9070 
  8 O      -83.6044     0.8296     0.0063 O.2   1 <1>  -0.5200 
  9 O      -83.6040     2.9327     0.0057 O.2   1 <1>  -0.5200 
 10 H      -85.8385     4.0255     0.0039 H     1 <1>   0.1500 
 11 H      -88.2948     4.0094    -0.0026 H     1 <1>   0.1500 
 12 H      -89.5092     1.8822    -0.0050 H     1 <1>   0.1500 
 13 H      -88.2956    -0.2454    -0.0023 H     1 <1>   0.1500 
 14 H      -85.8394    -0.2623     0.0013 H     1 <1>   0.1500 
@<TRIPOS>BOND
  1   1   2  ar  
  2   1   6  ar  
  3   1  10  1   
  4   2   3  ar  
  5   2  11  1   
  6   3   4  ar  
  7   3  12  1   
  8   4   5  ar  
  9   4  13  1   
 10   5   6  ar  
 11   5  14  1   
 12   6   7  1   
 13   7   8  2   
 14   7   9  2   
@<TRIPOS>SUBSTRUCTURE
  1 ****   6 GROUP 4 **** **** 0

# MOE 2019.01 (io_trps.svl 2018.10)
