@<TRIPOS>MOLECULE
E3O
45 48 1 0 0 
SMALL
USER_CHARGES


@<TRIPOS>ATOM
  1 C       -3.2631     0.8439    -3.2899 C.3   1 <1>   0.0635 
  2 C       -4.3749     0.4042    -2.3017 C.3   1 <1>  -0.1600 
  3 C       -5.7527     0.2411    -2.9852 C.3   1 <1>  -0.1600 
  4 C       -6.1637     1.4900    -3.7988 C.3   1 <1>  -0.0000 
  5 C       -6.5023     2.6327    -2.7995 C.3   1 <1>  -0.2400 
  6 C       -7.3669     1.3527    -4.7634 C.3   1 <1>   0.2000 
  7 O       -7.4464     0.0638    -5.3683 O.3   1 <1>  -0.6800 
  8 C       -7.1113     2.4550    -5.8275 C.3   1 <1>   0.2000 
  9 O       -7.3965     1.9995    -7.1370 O.3   1 <1>  -0.6800 
 10 C       -5.6303     2.8546    -5.7243 C.3   1 <1>  -0.1600 
 11 C       -5.0280     1.7972    -4.7942 C.3   1 <1>  -0.0800 
 12 C       -3.6966     2.1019    -4.0811 C.3   1 <1>  -0.0800 
 13 C       -2.5626     2.4706    -5.0445 C.3   1 <1>  -0.1600 
 14 C       -1.3845     3.0349    -4.2411 C.3   1 <1>  -0.0165 
 15 C       -1.0598     2.1297    -3.0594 C.ar  1 <1>  -0.1435 
 16 C        0.1611     2.3493    -2.4226 C.ar  1 <1>  -0.1500 
 17 C        0.5267     1.5717    -1.3344 C.ar  1 <1>   0.0825 
 18 O        1.7222     1.8052    -0.7299 O.3   1 <1>  -0.5325 
 19 C       -0.3030     0.5654    -0.8619 C.ar  1 <1>  -0.1500 
 20 C       -1.5221     0.3432    -1.4918 C.ar  1 <1>  -0.1500 
 21 C       -1.9273     1.1262    -2.5833 C.ar  1 <1>  -0.1435 
 22 H       -3.1176     0.0271    -3.9993 H     1 <1>   0.0800 
 23 H       -4.4405     1.1277    -1.4889 H     1 <1>   0.0800 
 24 H       -4.1213    -0.5627    -1.8701 H     1 <1>   0.0800 
 25 H       -3.8393     2.9351    -3.3924 H     1 <1>   0.0800 
 26 H       -5.6931    -0.6227    -3.6488 H     1 <1>   0.0800 
 27 H       -6.5126     0.0218    -2.2335 H     1 <1>   0.0800 
 28 H       -5.6631     2.8615    -2.1462 H     1 <1>   0.0800 
 29 H       -6.7814     3.5508    -3.3148 H     1 <1>   0.0800 
 30 H       -7.3401     2.3306    -2.1696 H     1 <1>   0.0800 
 31 H       -8.3015     1.5511    -4.2358 H     1 <1>   0.0800 
 32 H       -4.8602     0.9094    -5.4093 H     1 <1>   0.0800 
 33 H       -6.6383    -0.0677    -5.8746 H     1 <1>   0.4000 
 34 H       -7.7342     3.3230    -5.6030 H     1 <1>   0.0800 
 35 H       -7.9605     1.2214    -7.0355 H     1 <1>   0.4000 
 36 H       -5.5429     3.8472    -5.2822 H     1 <1>   0.0800 
 37 H       -5.1447     2.8418    -6.7015 H     1 <1>   0.0800 
 38 H       -2.8940     3.2339    -5.7486 H     1 <1>   0.0800 
 39 H       -2.2420     1.5915    -5.6064 H     1 <1>   0.0800 
 40 H       -1.6428     4.0239    -3.8596 H     1 <1>   0.0800 
 41 H       -0.5133     3.1243    -4.8916 H     1 <1>   0.0800 
 42 H        0.8187     3.1076    -2.7602 H     1 <1>   0.1500 
 43 H        1.8469     1.1906     0.0163 H     1 <1>   0.4500 
 44 H       -0.0138    -0.0299    -0.0361 H     1 <1>   0.1500 
 45 H       -2.1357    -0.4386    -1.1318 H     1 <1>   0.1500 
@<TRIPOS>BOND
  1   1   2  1   
  2   1  12  1   
  3   1  21  1   
  4   1  22  1   
  5   2   3  1   
  6   2  23  1   
  7   2  24  1   
  8   3   4  1   
  9   3  26  1   
 10   3  27  1   
 11   4   5  1   
 12   4   6  1   
 13   4  11  1   
 14   5  28  1   
 15   5  29  1   
 16   5  30  1   
 17   6   7  1   
 18   6   8  1   
 19   6  31  1   
 20   7  33  1   
 21   8   9  1   
 22   8  10  1   
 23   8  34  1   
 24   9  35  1   
 25  10  11  1   
 26  10  36  1   
 27  10  37  1   
 28  11  12  1   
 29  11  32  1   
 30  12  13  1   
 31  12  25  1   
 32  13  14  1   
 33  13  38  1   
 34  13  39  1   
 35  14  15  1   
 36  14  40  1   
 37  14  41  1   
 38  15  16  ar  
 39  15  21  ar  
 40  16  17  ar  
 41  16  42  1   
 42  17  18  1   
 43  17  19  ar  
 44  18  43  1   
 45  19  20  ar  
 46  19  44  1   
 47  20  21  ar  
 48  20  45  1   
@<TRIPOS>SUBSTRUCTURE
  1 ****  12 GROUP 4 **** **** 0

# MOE 2019.01 (io_trps.svl 2018.10)
