@<TRIPOS>MOLECULE
VKC
15 14 1 0 0 
SMALL
USER_CHARGES


@<TRIPOS>ATOM
  1 C       -1.9603    -0.3772    -0.1226 C.2   1 <1>   0.9060 
  2 O       -2.5307    -0.5304     0.9821 O.co2 1 <1>  -0.9000 
  3 C       -0.8989     0.7140    -0.2247 C.3   1 <1>   0.0140 
  4 H       -1.1263     1.4400     0.5406 H     1 <1>   0.0800 
  5 H       -0.9407     1.0950    -1.2334 H     1 <1>   0.0800 
  6 C        2.8226     0.2721     0.2455 C.3   1 <1>   0.1200 
  7 H        2.7635    -0.1807     1.2366 H     1 <1>   0.0800 
  8 H        3.7085     0.9045     0.1842 H     1 <1>   0.0800 
  9 C        1.5623     1.1069     0.0079 C.3   1 <1>   0.1200 
 10 H        1.6206     1.6001    -0.9633 H     1 <1>   0.0800 
 11 H        1.4409     1.8409     0.8048 H     1 <1>   0.0800 
 12 O        0.4715     0.1568     0.0257 O.3   1 <1>  -0.5600 
 13 O        2.8794    -0.7444    -0.7331 O.3   1 <1>  -0.6800 
 14 H        1.9606    -1.0498    -0.8147 H     1 <1>   0.4000 
 15 O       -2.2757    -0.9830    -1.1726 O.co2 1 <1>  -0.9000 
@<TRIPOS>BOND
  1   1   2  ar  
  2   1   3  1   
  3   1  15  ar  
  4   3   4  1   
  5   3   5  1   
  6   3  12  1   
  7   6   7  1   
  8   6   8  1   
  9   6   9  1   
 10   6  13  1   
 11   9  10  1   
 12   9  11  1   
 13   9  12  1   
 14  13  14  1   
@<TRIPOS>SUBSTRUCTURE
  1 ****  12 GROUP 4 **** **** 0

# MOE 2019.01 (io_trps.svl 2018.10)
