@<TRIPOS>MOLECULE
5WW
34 36 1 0 0 
SMALL
USER_CHARGES


@<TRIPOS>ATOM
  1 C      -29.8038    35.0687     0.0576 C.3   1 <1>   0.0400 
  2 O      -30.6832    34.0041    -0.3719 O.3   1 <1>  -0.3625 
  3 C      -32.0518    34.0073    -0.2437 C.ar  1 <1>   0.0825 
  4 C      -32.7406    32.9114    -0.7543 C.ar  1 <1>  -0.1500 
  5 C      -34.1260    32.8623    -0.6560 C.ar  1 <1>  -0.1500 
  6 C      -32.7390    35.0574     0.3681 C.ar  1 <1>  -0.1500 
  7 C      -34.1250    35.0018     0.4650 C.ar  1 <1>  -0.1500 
  8 C      -34.8393    33.9055    -0.0434 C.ar  1 <1>   0.0284 
  9 C      -36.2928    33.8579     0.0619 C.2   1 <1>   0.0806 
 10 C      -37.1416    34.9081    -0.1573 C.2   1 <1>  -0.1784 
 11 C      -38.5693    34.7739    -0.0298 C.ar  1 <1>   0.0284 
 12 C      -39.4728    35.8470    -0.2346 C.ar  1 <1>   0.1000 
 13 N      -39.0135    37.1273    -0.5276 N.pl3 1 <1>  -0.9000 
 14 C      -40.8469    35.6564    -0.1445 C.ar  1 <1>  -0.1500 
 15 C      -41.3559    34.3990     0.1754 C.ar  1 <1>  -0.1500 
 16 C      -40.4926    33.3371     0.4020 C.ar  1 <1>  -0.1500 
 17 C      -39.1014    33.5126     0.3042 C.ar  1 <1>   0.0862 
 18 C      -38.1876    32.4100     0.5407 C.2   1 <1>   0.5438 
 19 O      -38.5048    31.2636     0.8502 O.2   1 <1>  -0.5700 
 20 N      -36.8467    32.6272     0.4208 N.am  1 <1>  -0.5390 
 21 H      -28.7832    34.7768    -0.1899 H     1 <1>   0.0800 
 22 H      -30.0792    35.9787    -0.4761 H     1 <1>   0.0800 
 23 H      -29.9128    35.1920     1.1353 H     1 <1>   0.0800 
 24 H      -32.2029    32.1254    -1.2178 H     1 <1>   0.1500 
 25 H      -32.2158    35.8895     0.7584 H     1 <1>   0.1500 
 26 H      -34.6484    32.0331    -1.0590 H     1 <1>   0.1500 
 27 H      -34.6483    35.7931     0.9359 H     1 <1>   0.1500 
 28 H      -36.7426    35.8424    -0.4505 H     1 <1>   0.1500 
 29 H      -36.2445    31.8194     0.6269 H     1 <1>   0.3700 
 30 H      -38.0545    37.3323    -0.2148 H     1 <1>   0.4000 
 31 H      -39.6871    37.8871    -0.3512 H     1 <1>   0.4000 
 32 H      -41.5066    36.4657    -0.3197 H     1 <1>   0.1500 
 33 H      -42.4042    34.2542     0.2459 H     1 <1>   0.1500 
 34 H      -40.8806    32.3810     0.6493 H     1 <1>   0.1500 
@<TRIPOS>BOND
  1   1   2  1   
  2   1  21  1   
  3   1  22  1   
  4   1  23  1   
  5   2   3  1   
  6   3   4  ar  
  7   3   6  ar  
  8   4   5  ar  
  9   4  24  1   
 10   5   8  ar  
 11   5  26  1   
 12   6   7  ar  
 13   6  25  1   
 14   7   8  ar  
 15   7  27  1   
 16   8   9  1   
 17   9  10  2   
 18   9  20  1   
 19  10  11  1   
 20  10  28  1   
 21  11  12  ar  
 22  11  17  ar  
 23  12  13  1   
 24  12  14  ar  
 25  13  30  1   
 26  13  31  1   
 27  14  15  ar  
 28  14  32  1   
 29  15  16  ar  
 30  15  33  1   
 31  16  17  ar  
 32  16  34  1   
 33  17  18  1   
 34  18  19  2   
 35  18  20  am  
 36  20  29  1   
@<TRIPOS>SUBSTRUCTURE
  1 ****   9 GROUP 4 **** **** 0

# MOE 2019.01 (io_trps.svl 2018.10)
