@<TRIPOS>MOLECULE
X11
24 25 1 0 0 
SMALL
USER_CHARGES


@<TRIPOS>ATOM
  1 N      -19.6000    52.6526   -22.2648 N.ar  1 <1>  -0.6200 
  2 C      -20.8989    52.8232   -22.2226 C.ar  1 <1>   0.7200 
  3 N      -21.5221    53.9513   -22.0288 N.ar  1 <1>  -0.6200 
  4 C      -20.7195    54.9635   -21.8638 C.ar  1 <1>   0.7200 
  5 N      -19.4076    54.9264   -21.8805 N.ar  1 <1>  -0.6200 
  6 C      -18.8475    53.7334   -22.0861 C.ar  1 <1>   0.6200 
  7 N      -21.6505    51.7380   -22.4013 N.pl3 1 <1>  -0.9000 
  8 N      -21.2812    56.1534   -21.6553 N.pl3 1 <1>  -0.9000 
  9 C      -17.3826    53.5998   -22.1183 C.ar  1 <1>   0.0000 
 10 C      -16.5218    54.6812   -22.4070 C.ar  1 <1>   0.0825 
 11 C      -15.1403    54.5289   -22.4520 C.ar  1 <1>  -0.1500 
 12 C      -14.5769    53.2848   -22.1999 C.ar  1 <1>  -0.1500 
 13 C      -15.3972    52.1988   -21.9049 C.ar  1 <1>  -0.1500 
 14 C      -16.7795    52.3534   -21.8646 C.ar  1 <1>  -0.1500 
 15 O      -17.0038    55.9296   -22.6575 O.3   1 <1>  -0.5325 
 16 H      -21.1650    50.9599   -22.8569 H     1 <1>   0.4000 
 17 H      -22.6177    51.9379   -22.6727 H     1 <1>   0.4000 
 18 H      -22.2653    56.1025   -21.3734 H     1 <1>   0.4000 
 19 H      -20.6797    56.8349   -21.1836 H     1 <1>   0.4000 
 20 H      -14.5267    55.3629   -22.6769 H     1 <1>   0.1500 
 21 H      -13.5243    53.1621   -22.2315 H     1 <1>   0.1500 
 22 H      -14.9653    51.2499   -21.7112 H     1 <1>   0.1500 
 23 H      -17.3841    51.5121   -21.6379 H     1 <1>   0.1500 
 24 H      -17.9771    55.9193   -22.4877 H     1 <1>   0.4500 
@<TRIPOS>BOND
  1   1   2  ar  
  2   1   6  ar  
  3   2   3  ar  
  4   2   7  1   
  5   3   4  ar  
  6   4   5  ar  
  7   4   8  1   
  8   5   6  ar  
  9   6   9  1   
 10   7  16  1   
 11   7  17  1   
 12   8  18  1   
 13   8  19  1   
 14   9  10  ar  
 15   9  14  ar  
 16  10  11  ar  
 17  10  15  1   
 18  11  12  ar  
 19  11  20  1   
 20  12  13  ar  
 21  12  21  1   
 22  13  14  ar  
 23  13  22  1   
 24  14  23  1   
 25  15  24  1   
@<TRIPOS>SUBSTRUCTURE
  1 ****   6 GROUP 4 **** **** 0

# MOE 2019.01 (io_trps.svl 2018.10)
