@<TRIPOS>MOLECULE
WOE
26 27 1 0 0 
SMALL
USER_CHARGES


@<TRIPOS>ATOM
  1 C        3.5023    -1.8937     1.5608 C.3   1 <1>   0.0400 
  2 O        2.3854    -1.2072     0.9482 O.3   1 <1>  -0.3625 
  3 C        2.4644    -0.0741     0.1613 C.ar  1 <1>   0.0825 
  4 C        3.6878     0.5772    -0.0153 C.ar  1 <1>  -0.1500 
  5 C        3.7579     1.7019    -0.8293 C.ar  1 <1>  -0.1500 
  6 C        2.6132     2.1741    -1.4666 C.ar  1 <1>  -0.1500 
  7 C        1.3957     1.5268    -1.2861 C.ar  1 <1>  -0.1500 
  8 C        1.2936     0.3967    -0.4624 C.ar  1 <1>   0.0000 
  9 C       -0.0028    -0.2533    -0.2774 C.ar  1 <1>   0.3100 
 10 C       -0.4750    -0.6133     0.9771 C.ar  1 <1>  -0.1500 
 11 C       -1.7160    -1.2249     1.0711 C.ar  1 <1>   0.4870 
 12 CL      -2.3360    -1.7047     2.6163 Cl    1 <1>  -0.1770 
 13 N       -2.4547    -1.4574    -0.0021 N.ar  1 <1>  -0.6200 
 14 C       -1.9387    -1.0671    -1.1493 C.ar  1 <1>   0.7200 
 15 N       -2.6758    -1.2936    -2.2383 N.pl3 1 <1>  -0.9000 
 16 N       -0.7705    -0.4891    -1.3457 N.ar  1 <1>  -0.6200 
 17 H        3.9745    -1.2179     2.2745 H     1 <1>   0.0800 
 18 H        3.1127    -2.7745     2.0714 H     1 <1>   0.0800 
 19 H        4.1979    -2.1878     0.7740 H     1 <1>   0.0800 
 20 H        4.5634     0.2241     0.4614 H     1 <1>   0.1500 
 21 H        4.6835     2.2001    -0.9689 H     1 <1>   0.1500 
 22 H        2.6704     3.0287    -2.0917 H     1 <1>   0.1500 
 23 H        0.5298     1.8916    -1.7781 H     1 <1>   0.1500 
 24 H        0.0955    -0.4301     1.8473 H     1 <1>   0.1500 
 25 H       -3.3672    -2.0352    -2.0965 H     1 <1>   0.4000 
 26 H       -2.1102    -1.3244    -3.0910 H     1 <1>   0.4000 
@<TRIPOS>BOND
  1   1   2  1   
  2   1  17  1   
  3   1  18  1   
  4   1  19  1   
  5   2   3  1   
  6   3   4  ar  
  7   3   8  ar  
  8   4   5  ar  
  9   4  20  1   
 10   5   6  ar  
 11   5  21  1   
 12   6   7  ar  
 13   6  22  1   
 14   7   8  ar  
 15   7  23  1   
 16   8   9  1   
 17   9  10  ar  
 18   9  16  ar  
 19  10  11  ar  
 20  10  24  1   
 21  11  12  1   
 22  11  13  ar  
 23  13  14  ar  
 24  14  15  1   
 25  14  16  ar  
 26  15  25  1   
 27  15  26  1   
@<TRIPOS>SUBSTRUCTURE
  1 ****   9 GROUP 4 **** **** 0

# MOE 2019.01 (io_trps.svl 2018.10)
