@<TRIPOS>MOLECULE
BIT
38 41 1 0 0 
SMALL
USER_CHARGES


@<TRIPOS>ATOM
  1 O        2.3034    -2.5024    -0.6946 O.2   1 <1>  -0.5700 
  2 C        1.7135    -1.5573    -0.2005 C.2   1 <1>   0.4228 
  3 C        2.3004    -0.2330    -0.1278 C.ar  1 <1>   0.0862 
  4 C        3.6846    -0.0290    -0.2174 C.ar  1 <1>  -0.1500 
  5 C        4.2200     1.2509    -0.1174 C.ar  1 <1>  -0.1435 
  6 C        5.7157     1.4675    -0.1977 C.3   1 <1>  -0.0965 
  7 C        3.3661     2.3390     0.0717 C.ar  1 <1>  -0.1500 
  8 C        1.4439     0.8738     0.0390 C.ar  1 <1>   0.1790 
  9 C        1.9902     2.1513     0.1436 C.ar  1 <1>  -0.1500 
 10 C        0.3313    -1.7282     0.4162 C.3   1 <1>   0.4020 
 11 C       -0.4456    -0.4577     0.1698 C.2   1 <1>   0.4390 
 12 N        0.0362     0.7199     0.0433 N.2   1 <1>  -0.6290 
 13 O        0.4123    -2.0125     1.8719 O.3   1 <1>  -0.6800 
 14 C       -0.5676    -2.7821    -0.2369 C.3   1 <1>  -0.1600 
 15 C       -1.9741    -2.2328     0.0949 C.3   1 <1>   0.2091 
 16 N       -1.7787    -0.7768     0.0536 N.pl3 1 <1>  -0.5191 
 17 C       -2.8492     0.1466    -0.0558 C.ar  1 <1>   0.1000 
 18 C       -3.8524    -0.0700    -1.0038 C.ar  1 <1>  -0.1500 
 19 C       -4.9171     0.8212    -1.0902 C.ar  1 <1>  -0.1500 
 20 C       -4.9794     1.9234    -0.2389 C.ar  1 <1>  -0.1500 
 21 C       -3.9726     2.1381     0.7010 C.ar  1 <1>  -0.1500 
 22 C       -2.9046     1.2522     0.7959 C.ar  1 <1>  -0.1500 
 23 H        4.3235    -0.8642    -0.3581 H     1 <1>   0.1500 
 24 H        6.0975     1.5752     0.8178 H     1 <1>   0.0800 
 25 H        6.1775     0.6102    -0.6885 H     1 <1>   0.0800 
 26 H        5.9060     2.3721    -0.7759 H     1 <1>   0.0800 
 27 H        3.7662     3.3177     0.1543 H     1 <1>   0.1500 
 28 H        1.3432     2.9809     0.2688 H     1 <1>   0.1500 
 29 H        0.6609    -1.2029     2.3504 H     1 <1>   0.4000 
 30 H       -0.3985    -3.7768     0.1751 H     1 <1>   0.0800 
 31 H       -0.4193    -2.7758    -1.3174 H     1 <1>   0.0800 
 32 H       -2.2468    -2.5198     1.1032 H     1 <1>   0.0800 
 33 H       -2.6825    -2.5629    -0.6526 H     1 <1>   0.0800 
 34 H       -3.7992    -0.8977    -1.6600 H     1 <1>   0.1500 
 35 H       -5.6816     0.6654    -1.8077 H     1 <1>   0.1500 
 36 H       -5.7914     2.6015    -0.3086 H     1 <1>   0.1500 
 37 H       -4.0197     2.9793     1.3438 H     1 <1>   0.1500 
 38 H       -2.1375     1.4125     1.5077 H     1 <1>   0.1500 
@<TRIPOS>BOND
  1   1   2  2   
  2   2   3  1   
  3   2  10  1   
  4   3   4  ar  
  5   3   8  ar  
  6   4   5  ar  
  7   4  23  1   
  8   5   6  1   
  9   5   7  ar  
 10   6  24  1   
 11   6  25  1   
 12   6  26  1   
 13   7   9  ar  
 14   7  27  1   
 15   8   9  ar  
 16   8  12  1   
 17   9  28  1   
 18  10  11  1   
 19  10  13  1   
 20  10  14  1   
 21  11  12  2   
 22  11  16  1   
 23  13  29  1   
 24  14  15  1   
 25  14  30  1   
 26  14  31  1   
 27  15  16  1   
 28  15  32  1   
 29  15  33  1   
 30  16  17  1   
 31  17  18  ar  
 32  17  22  ar  
 33  18  19  ar  
 34  18  34  1   
 35  19  20  ar  
 36  19  35  1   
 37  20  21  ar  
 38  20  36  1   
 39  21  22  ar  
 40  21  37  1   
 41  22  38  1   
@<TRIPOS>SUBSTRUCTURE
  1 ****  11 GROUP 4 **** **** 0

# MOE 2019.01 (io_trps.svl 2018.10)
