@<TRIPOS>MOLECULE
5QT
34 34 1 0 0 
SMALL
USER_CHARGES


@<TRIPOS>ATOM
  1 C       -1.7959    -0.1533    -0.5342 C.2   1 <1>   0.5000 
  2 C       -4.3203    -1.2087    -1.0145 C.2   1 <1>   0.6900 
  3 C       -2.7707     0.6058    -1.3403 C.2   1 <1>   0.4400 
  4 C        6.3418     0.4435    -0.2900 C.3   1 <1>  -0.2400 
  5 C        4.9631    -0.2358    -0.2550 C.3   1 <1>  -0.0000 
  6 C        4.5415    -0.5445    -1.7023 C.3   1 <1>  -0.2400 
  7 C        5.0948    -1.5535     0.5284 C.3   1 <1>  -0.2400 
  8 C        3.9607     0.7246     0.4268 C.3   1 <1>   0.1200 
  9 O        2.6594     0.0648     0.4421 O.3   1 <1>  -0.4300 
 10 C        1.5757     0.6820     0.9425 C.2   1 <1>   0.6590 
 11 O        1.6805     1.8264     1.3881 O.2   1 <1>  -0.5700 
 12 C        0.2504    -0.0688     0.8799 C.3   1 <1>   0.2701 
 13 N       -0.5163     0.3892    -0.3165 N.pl3 1 <1>  -0.8191 
 14 N       -2.0599    -1.3047    -0.0148 N.2   1 <1>  -0.5120 
 15 N       -3.3457    -1.8287    -0.2641 N.am  1 <1>  -0.3680 
 16 O       -5.4118    -1.7196    -1.1976 O.2   1 <1>  -0.5700 
 17 N       -4.0154     0.0080    -1.5443 N.am  1 <1>  -0.4900 
 18 S       -2.5300     2.1272    -2.0176 S.2   1 <1>  -0.3800 
 19 H        6.2881     1.3757    -0.8540 H     1 <1>   0.0800 
 20 H        6.6791     0.6648     0.7235 H     1 <1>   0.0800 
 21 H        7.0736    -0.2106    -0.7665 H     1 <1>   0.0800 
 22 H        5.2846    -1.1798    -2.1854 H     1 <1>   0.0800 
 23 H        3.5823    -1.0636    -1.7143 H     1 <1>   0.0800 
 24 H        4.4442     0.3810    -2.2709 H     1 <1>   0.0800 
 25 H        5.8428    -2.1966     0.0631 H     1 <1>   0.0800 
 26 H        5.3940    -1.3508     1.5572 H     1 <1>   0.0800 
 27 H        4.1417    -2.0833     0.5381 H     1 <1>   0.0800 
 28 H        4.2811     0.9381     1.4479 H     1 <1>   0.0800 
 29 H        3.8978     1.6584    -0.1349 H     1 <1>   0.0800 
 30 H        0.4678    -1.1247     0.7860 H     1 <1>   0.0800 
 31 H       -0.3093     0.1800     1.7713 H     1 <1>   0.0800 
 32 H       -0.4796     1.4102    -0.4847 H     1 <1>   0.4000 
 33 H       -3.6139    -2.7518     0.1160 H     1 <1>   0.3700 
 34 H       -4.7363     0.4777    -2.1012 H     1 <1>   0.3700 
@<TRIPOS>BOND
  1   1   3  1   
  2   1  13  1   
  3   1  14  2   
  4   2  15  am  
  5   2  16  2   
  6   2  17  am  
  7   3  17  am  
  8   3  18  2   
  9   4   5  1   
 10   4  19  1   
 11   4  20  1   
 12   4  21  1   
 13   5   6  1   
 14   5   7  1   
 15   5   8  1   
 16   6  22  1   
 17   6  23  1   
 18   6  24  1   
 19   7  25  1   
 20   7  26  1   
 21   7  27  1   
 22   8   9  1   
 23   8  28  1   
 24   8  29  1   
 25   9  10  1   
 26  10  11  2   
 27  10  12  1   
 28  12  13  1   
 29  12  30  1   
 30  12  31  1   
 31  13  32  1   
 32  14  15  1   
 33  15  33  1   
 34  17  34  1   
@<TRIPOS>SUBSTRUCTURE
  1 ****  13 GROUP 4 **** **** 0

# MOE 2019.01 (io_trps.svl 2018.10)
