@<TRIPOS>MOLECULE
DMD
21 22 1 0 0 
SMALL
USER_CHARGES


@<TRIPOS>ATOM
  1 N        2.3059     1.0082     0.0715 N.2   1 <1>  -0.5653 
  2 N        2.1463    -1.1180    -0.4820 N.pl3 1 <1>   0.0332 
  3 H        2.4453    -2.0667    -0.7517 H     1 <1>   0.2700 
  4 C        2.9677    -0.0557    -0.2507 C.2   1 <1>   0.0365 
  5 H        4.0202    -0.1536    -0.3409 H     1 <1>   0.1500 
  6 C        0.8688    -0.7012    -0.2941 C.ar  1 <1>  -0.1516 
  7 C        0.9773     0.6284     0.0516 C.ar  1 <1>   0.2272 
  8 C       -0.1892     1.3553     0.3148 C.ar  1 <1>  -0.1500 
  9 C       -1.4294     0.7299     0.2240 C.ar  1 <1>  -0.1435 
 10 C       -1.5140    -0.6449    -0.1361 C.ar  1 <1>  -0.1435 
 11 C       -0.3574    -1.3671    -0.3969 C.ar  1 <1>  -0.1500 
 12 C       -2.6814     1.5369     0.5142 C.3   1 <1>  -0.0965 
 13 C       -2.8580    -1.3415    -0.2400 C.3   1 <1>  -0.0965 
 14 H       -0.1052     2.3758     0.5802 H     1 <1>   0.1500 
 15 H       -0.3935    -2.3909    -0.6661 H     1 <1>   0.1500 
 16 H       -3.3001     1.5468    -0.3829 H     1 <1>   0.0800 
 17 H       -3.2081     1.0692     1.3457 H     1 <1>   0.0800 
 18 H       -2.4037     2.5565     0.7813 H     1 <1>   0.0800 
 19 H       -3.3390    -1.3074     0.7374 H     1 <1>   0.0800 
 20 H       -3.4584    -0.8223    -0.9869 H     1 <1>   0.0800 
 21 H       -2.7101    -2.3779    -0.5426 H     1 <1>   0.0800 
@<TRIPOS>BOND
  1   1   4  2   
  2   1   7  1   
  3   2   3  1   
  4   2   4  1   
  5   2   6  1   
  6   4   5  1   
  7   6   7  ar  
  8   6  11  ar  
  9   7   8  ar  
 10   8   9  ar  
 11   8  14  1   
 12   9  10  ar  
 13   9  12  1   
 14  10  11  ar  
 15  10  13  1   
 16  11  15  1   
 17  12  16  1   
 18  12  17  1   
 19  12  18  1   
 20  13  19  1   
 21  13  20  1   
 22  13  21  1   
@<TRIPOS>SUBSTRUCTURE
  1 ****   6 GROUP 4 **** **** 0

# MOE 2019.01 (io_trps.svl 2018.10)
