@<TRIPOS>MOLECULE
N7I
25 25 1 0 0 
SMALL
USER_CHARGES


@<TRIPOS>ATOM
  1 C        0.2450    -1.3553     0.1518 C.ar  1 <1>  -0.1500 
  2 O        5.1085    -0.2168     0.4804 O.3   1 <1>  -0.6800 
  3 C       -3.0996     2.5772     0.1099 C.3   1 <1>   0.0400 
  4 O       -3.3934    -1.5526     0.2725 O.3   1 <1>  -0.5325 
  5 C       -1.0374    -1.8951     0.2145 C.ar  1 <1>  -0.1500 
  6 O       -3.1070     1.1313     0.1608 O.3   1 <1>  -0.3625 
  7 C       -2.1335    -1.0438     0.2135 C.ar  1 <1>   0.0825 
  8 C       -1.9629     0.3392     0.1543 C.ar  1 <1>   0.0825 
  9 C       -0.6796     0.8794     0.0909 C.ar  1 <1>  -0.1500 
 10 C        0.4422     0.0360     0.0831 C.ar  1 <1>   0.0284 
 11 C        1.7769     0.6304     0.0101 C.2   1 <1>  -0.1784 
 12 C        2.9178    -0.0419    -0.2558 C.2   1 <1>  -0.2882 
 13 C        4.2698     0.6234    -0.3277 C.3   1 <1>   0.2582 
 14 H        1.0772    -2.0084     0.1646 H     1 <1>   0.1500 
 15 H        6.0058     0.1493     0.5397 H     1 <1>   0.4000 
 16 H       -4.1349     2.9181     0.1288 H     1 <1>   0.0800 
 17 H       -2.5605     2.9494     0.9817 H     1 <1>   0.0800 
 18 H       -2.6142     2.8864    -0.8164 H     1 <1>   0.0800 
 19 H       -3.9869    -0.7719     0.2607 H     1 <1>   0.4500 
 20 H       -1.1834    -2.9429     0.2651 H     1 <1>   0.1500 
 21 H       -0.5421     1.9260     0.0445 H     1 <1>   0.1500 
 22 H        1.8188     1.6760     0.1786 H     1 <1>   0.1500 
 23 H        2.9275    -1.0831    -0.4473 H     1 <1>   0.1500 
 24 H        4.2165     1.6148     0.1038 H     1 <1>   0.0800 
 25 H        4.6173     0.6125    -1.3529 H     1 <1>   0.0800 
@<TRIPOS>BOND
  1   1   5  ar  
  2   1  10  ar  
  3   1  14  1   
  4   2  13  1   
  5   2  15  1   
  6   3   6  1   
  7   3  16  1   
  8   3  17  1   
  9   3  18  1   
 10   4   7  1   
 11   4  19  1   
 12   5   7  ar  
 13   5  20  1   
 14   6   8  1   
 15   7   8  ar  
 16   8   9  ar  
 17   9  10  ar  
 18   9  21  1   
 19  10  11  1   
 20  11  12  2   
 21  11  22  1   
 22  12  13  1   
 23  12  23  1   
 24  13  24  1   
 25  13  25  1   
@<TRIPOS>SUBSTRUCTURE
  1 ****  10 GROUP 4 **** **** 0

# MOE 2019.01 (io_trps.svl 2018.10)
