@<TRIPOS>MOLECULE
MS9
20 20 1 0 0 
SMALL
USER_CHARGES


@<TRIPOS>ATOM
  1 CL      -3.8243    -0.3438    -0.0761 Cl    1 <1>  -0.1770 
  2 C       -2.0949    -0.2206    -0.0351 C.ar  1 <1>   0.1770 
  3 C       -1.4861     1.0292    -0.0333 C.ar  1 <1>  -0.1500 
  4 C       -0.0952     1.1171    -0.0008 C.ar  1 <1>   0.1000 
  5 C        0.7179    -0.0448     0.0446 C.ar  1 <1>   0.0862 
  6 C        0.0653    -1.2948     0.0304 C.ar  1 <1>  -0.1500 
  7 C       -1.3192    -1.3851    -0.0073 C.ar  1 <1>  -0.1500 
  8 C        2.1746     0.0262     0.1177 C.2   1 <1>   0.6338 
  9 O        2.8342     1.0368     0.3552 O.2   1 <1>  -0.5700 
 10 O        2.8767    -1.1253    -0.0737 O.3   1 <1>  -0.4300 
 11 C        4.3301    -1.1656    -0.0234 C.3   1 <1>   0.0400 
 12 N        0.4568     2.3888    -0.0332 N.pl3 1 <1>  -0.9000 
 13 H       -2.0781     1.9055    -0.0681 H     1 <1>   0.1500 
 14 H        0.6392    -2.1866     0.0541 H     1 <1>   0.1500 
 15 H       -1.7990    -2.3300    -0.0146 H     1 <1>   0.1500 
 16 H        4.6483    -2.1894    -0.2206 H     1 <1>   0.0800 
 17 H        4.7198    -0.4887    -0.7856 H     1 <1>   0.0800 
 18 H        4.6493    -0.8481     0.9705 H     1 <1>   0.0800 
 19 H       -0.1082     3.1567     0.3571 H     1 <1>   0.4000 
 20 H        1.4733     2.4258     0.1988 H     1 <1>   0.4000 
@<TRIPOS>BOND
  1   1   2  1   
  2   2   3  ar  
  3   2   7  ar  
  4   3   4  ar  
  5   3  13  1   
  6   4   5  ar  
  7   4  12  1   
  8   5   6  ar  
  9   5   8  1   
 10   6   7  ar  
 11   6  14  1   
 12   7  15  1   
 13   8   9  2   
 14   8  10  1   
 15  10  11  1   
 16  11  16  1   
 17  11  17  1   
 18  11  18  1   
 19  12  19  1   
 20  12  20  1   
@<TRIPOS>SUBSTRUCTURE
  1 ****   5 GROUP 4 **** **** 0

# MOE 2019.01 (io_trps.svl 2018.10)
