@<TRIPOS>MOLECULE
F90
22 22 1 0 0 
SMALL
USER_CHARGES


@<TRIPOS>ATOM
  1 C        0.4539     1.5073     0.8435 C.ar  1 <1>  -0.1435 
  2 C        1.3754     2.5954     1.3604 C.3   1 <1>   0.2135 
  3 S        3.0837     1.9149     1.3366 S.3   1 <1>  -0.3610 
  4 C        3.1684     0.3139     1.9291 C.cat 1 <1>   0.8398 
  5 N        2.1290    -0.4580     2.1394 N.pl3 1 <1>  -0.7544 
  6 N        4.3414    -0.2090     2.1894 N.pl3 1 <1>  -0.7544 
  7 C        0.6366     0.9645    -0.4307 C.ar  1 <1>  -0.1500 
  8 C       -0.1948    -0.0519    -0.8886 C.ar  1 <1>  -0.1500 
  9 C       -1.2228    -0.5286    -0.0758 C.ar  1 <1>   0.1770 
 10 CL      -2.2465    -1.8070    -0.6349 Cl    1 <1>  -0.1770 
 11 C       -1.4237     0.0218     1.1900 C.ar  1 <1>  -0.1500 
 12 C       -0.5905     1.0385     1.6446 C.ar  1 <1>  -0.1500 
 13 H        1.3560     3.4409     0.6845 H     1 <1>   0.0800 
 14 H        1.1394     2.8591     2.3831 H     1 <1>   0.0800 
 15 H        2.2267    -1.4246     2.4691 H     1 <1>   0.4500 
 16 H        1.2015    -0.1322     1.8123 H     1 <1>   0.4500 
 17 H        5.1796     0.3700     2.0260 H     1 <1>   0.4500 
 18 H        4.4478    -1.1636     2.5506 H     1 <1>   0.4500 
 19 H        1.4092     1.3298    -1.0618 H     1 <1>   0.1500 
 20 H       -0.0605    -0.4646    -1.8563 H     1 <1>   0.1500 
 21 H       -2.2212    -0.3342     1.7923 H     1 <1>   0.1500 
 22 H       -0.7632     1.4616     2.6039 H     1 <1>   0.1500 
@<TRIPOS>BOND
  1   1   2  1   
  2   1   7  ar  
  3   1  12  ar  
  4   2   3  1   
  5   2  13  1   
  6   2  14  1   
  7   3   4  1   
  8   4   5  ar  
  9   4   6  ar  
 10   5  15  1   
 11   5  16  1   
 12   6  17  1   
 13   6  18  1   
 14   7   8  ar  
 15   7  19  1   
 16   8   9  ar  
 17   8  20  1   
 18   9  10  1   
 19   9  11  ar  
 20  11  12  ar  
 21  11  21  1   
 22  12  22  1   
@<TRIPOS>SUBSTRUCTURE
  1 ****   1 GROUP 4 **** **** 0

# MOE 2019.01 (io_trps.svl 2018.10)
