@<TRIPOS>MOLECULE
PBZ
20 20 1 0 0 
SMALL
USER_CHARGES


@<TRIPOS>ATOM
  1 N       -7.9013     5.8357    11.2610 N.pl3 1 <1>  -0.7544 
  2 H       -8.3617     6.7502    11.1384 H     1 <1>   0.4500 
  3 H       -6.8741     5.8013    11.2491 H     1 <1>   0.4500 
  4 N       -7.9025     3.6869    11.5623 N.pl3 1 <1>  -0.7544 
  5 H       -6.8752     3.7155    11.5420 H     1 <1>   0.4500 
  6 H       -8.3641     2.7744    11.6951 H     1 <1>   0.4500 
  7 C       -8.6311     4.7633    11.4230 C.cat 1 <1>   0.7308 
  8 C      -10.0908     4.7671    11.4453 C.ar  1 <1>  -0.0220 
  9 C      -12.1998     5.9733    11.3032 C.ar  1 <1>  -0.1500 
 10 H      -12.7426     6.8747    11.1775 H     1 <1>   0.1500 
 11 C      -10.8139     5.9707    11.2855 C.ar  1 <1>  -0.1500 
 12 H      -10.3159     6.8943    11.1464 H     1 <1>   0.1500 
 13 C      -10.8150     3.5667    11.6243 C.ar  1 <1>  -0.1500 
 14 H      -10.3179     2.6402    11.7461 H     1 <1>   0.1500 
 15 C      -12.2009     3.5703    11.6419 C.ar  1 <1>  -0.1500 
 16 H      -12.7445     2.6698    11.7703 H     1 <1>   0.1500 
 17 C      -12.8886     4.7737    11.4834 C.ar  1 <1>   0.1000 
 18 N      -14.2602     4.7763    11.4985 N.pl3 1 <1>  -0.9000 
 19 H      -14.7390     3.9479    11.8826 H     1 <1>   0.4000 
 20 H      -14.7384     5.6789    11.6388 H     1 <1>   0.4000 
@<TRIPOS>BOND
  1   1   2  1   
  2   1   3  1   
  3   1   7  ar  
  4   4   5  1   
  5   4   6  1   
  6   4   7  ar  
  7   7   8  1   
  8   8  11  ar  
  9   8  13  ar  
 10   9  10  1   
 11   9  11  ar  
 12   9  17  ar  
 13  11  12  1   
 14  13  14  1   
 15  13  15  ar  
 16  15  16  1   
 17  15  17  ar  
 18  17  18  1   
 19  18  19  1   
 20  18  20  1   
@<TRIPOS>SUBSTRUCTURE
  1 ****   8 GROUP 4 **** **** 0

# MOE 2019.01 (io_trps.svl 2018.10)
