@<TRIPOS>MOLECULE
S0W
20 20 1 0 0 
SMALL
USER_CHARGES


@<TRIPOS>ATOM
  1 O        4.7081    -0.0879     0.2583 O.co2 1 <1>  -0.9000 
  2 C        3.7573     0.5478     0.7556 C.2   1 <1>   0.9060 
  3 O        3.8486     1.4867     1.5749 O.co2 1 <1>  -0.9000 
  4 C        2.3690     0.1213     0.3064 C.3   1 <1>  -0.2660 
  5 H1       2.2458    -0.9225     0.5848 H     1 <1>   0.0800 
  6 H2       2.3428     0.2015    -0.7775 H     1 <1>   0.0800 
  7 C        1.2357     0.9609     0.9186 C.3   1 <1>  -0.0165 
  8 H1       1.3668     2.0109     0.6516 H     1 <1>   0.0800 
  9 H2       1.2538     0.8712     2.0060 H     1 <1>   0.0800 
 10 C       -0.0629     0.4182     0.3507 C.ar  1 <1>  -0.1435 
 11 C       -0.7462    -0.6044     1.0088 C.ar  1 <1>  -0.1500 
 12 H       -0.3543    -1.0007     1.9107 H     1 <1>   0.1500 
 13 C       -1.9328    -1.1084     0.4861 C.ar  1 <1>  -0.1500 
 14 H       -2.4525    -1.8844     0.9843 H     1 <1>   0.1500 
 15 C       -2.4410    -0.5899    -0.7053 C.ar  1 <1>   0.1770 
 16 CL      -3.9192    -1.2157    -1.3609 Cl    1 <1>  -0.1770 
 17 C       -1.7606     0.4300    -1.3708 C.ar  1 <1>  -0.1500 
 18 H       -2.1498     0.8166    -2.2762 H     1 <1>   0.1500 
 19 C       -0.5748     0.9292    -0.8421 C.ar  1 <1>  -0.1500 
 20 H       -0.0520     1.7002    -1.3486 H     1 <1>   0.1500 
@<TRIPOS>BOND
  1   1   2  ar  
  2   2   3  ar  
  3   2   4  1   
  4   4   5  1   
  5   4   6  1   
  6   4   7  1   
  7   7   8  1   
  8   7   9  1   
  9   7  10  1   
 10  10  11  ar  
 11  10  19  ar  
 12  11  12  1   
 13  11  13  ar  
 14  13  14  1   
 15  13  15  ar  
 16  15  16  1   
 17  15  17  ar  
 18  17  18  1   
 19  17  19  ar  
 20  19  20  1   
@<TRIPOS>SUBSTRUCTURE
  1 ****  10 GROUP 4 **** **** 0

# MOE 2019.01 (io_trps.svl 2018.10)
