@<TRIPOS>MOLECULE
AEF
22 22 1 0 0 
SMALL
USER_CHARGES


@<TRIPOS>ATOM
  1 C        1.8648     0.3852     0.7126 C.3   1 <1>  -0.0165 
  2 C       -1.5187     1.0222    -0.9447 C.ar  1 <1>  -0.1500 
  3 C       -1.7375    -0.8941     0.5551 C.ar  1 <1>  -0.1500 
  4 C        2.7550    -0.3837    -0.2646 C.3   1 <1>   0.3430 
  5 C       -2.3069    -0.0014    -0.3799 C.ar  1 <1>   0.0825 
  6 O       -3.6132    -0.1158    -0.7422 O.3   1 <1>  -0.5325 
  7 C       -0.3841    -0.7619     0.9160 C.ar  1 <1>  -0.1500 
  8 C       -0.1674     1.1542    -0.5805 C.ar  1 <1>  -0.1500 
  9 C        0.4027     0.2614     0.3490 C.ar  1 <1>  -0.1435 
 10 N        4.1927    -0.2624     0.0795 N.4   1 <1>  -0.8530 
 11 H        2.0115     0.0030     1.7238 H     1 <1>   0.0800 
 12 H        2.1385     1.4413     0.7065 H     1 <1>   0.0800 
 13 H       -1.9662     1.7037    -1.6539 H     1 <1>   0.1500 
 14 H       -2.3384    -1.6759     0.9953 H     1 <1>   0.1500 
 15 H        2.4483    -1.4338    -0.2513 H     1 <1>   0.0800 
 16 H        2.5711     0.0031    -1.2715 H     1 <1>   0.0800 
 17 H       -4.0700    -0.8316    -0.2977 H     1 <1>   0.4500 
 18 H        0.0364    -1.4495     1.6367 H     1 <1>   0.1500 
 19 H        0.4173     1.9512    -1.0183 H     1 <1>   0.1500 
 20 H        4.3677    -0.6319     1.0049 H     1 <1>   0.4500 
 21 H        4.7528    -0.7822    -0.5845 H     1 <1>   0.4500 
 22 H        4.4817     0.7069     0.0526 H     1 <1>   0.4500 
@<TRIPOS>BOND
  1   1   4  1   
  2   1   9  1   
  3   1  11  1   
  4   1  12  1   
  5   2   5  ar  
  6   2   8  ar  
  7   2  13  1   
  8   3   5  ar  
  9   3   7  ar  
 10   3  14  1   
 11   4  10  1   
 12   4  15  1   
 13   4  16  1   
 14   5   6  1   
 15   6  17  1   
 16   7   9  ar  
 17   7  18  1   
 18   8   9  ar  
 19   8  19  1   
 20  10  20  1   
 21  10  21  1   
 22  10  22  1   
@<TRIPOS>SUBSTRUCTURE
  1 ****   9 GROUP 4 **** **** 0

# MOE 2019.01 (io_trps.svl 2018.10)
