@<TRIPOS>MOLECULE
UNU
16 16 1 0 0 
SMALL
USER_CHARGES


@<TRIPOS>ATOM
  1 O        3.0620    62.2101    -0.0029 O.2   1 <1>  -0.5700 
  2 C        2.4179    63.2449     0.0063 C.2   1 <1>   0.5438 
  3 N        3.1751    64.3635     0.0202 N.am  1 <1>  -0.8000 
  4 C        0.9484    63.3065     0.0035 C.ar  1 <1>   0.0862 
  5 C        0.2056    62.1164    -0.0019 C.ar  1 <1>  -0.1500 
  6 H        0.7132    61.1847    -0.0040 H     1 <1>   0.1500 
  7 C        0.2528    64.5280     0.0059 C.ar  1 <1>  -0.1500 
  8 H        0.7815    65.4443     0.0095 H     1 <1>   0.1500 
  9 C       -1.1381    64.5521     0.0032 C.ar  1 <1>  -0.1500 
 10 H       -1.6534    65.4790     0.0049 H     1 <1>   0.1500 
 11 C       -1.8574    63.3611    -0.0021 C.ar  1 <1>  -0.1500 
 12 H       -2.9178    63.3809    -0.0042 H     1 <1>   0.1500 
 13 C       -1.1846    62.1436    -0.0046 C.ar  1 <1>  -0.1500 
 14 H       -1.7321    61.2353    -0.0088 H     1 <1>   0.1500 
 15 H        4.1955    64.2399     0.0231 H     1 <1>   0.3700 
 16 H        2.7596    65.2995     0.0331 H     1 <1>   0.3700 
@<TRIPOS>BOND
  1   1   2  2   
  2   2   3  am  
  3   2   4  1   
  4   3  15  1   
  5   3  16  1   
  6   4   5  ar  
  7   4   7  ar  
  8   5   6  1   
  9   5  13  ar  
 10   7   8  1   
 11   7   9  ar  
 12   9  10  1   
 13   9  11  ar  
 14  11  12  1   
 15  11  13  ar  
 16  13  14  1   
@<TRIPOS>SUBSTRUCTURE
  1 ****   4 GROUP 4 **** **** 0

# MOE 2019.01 (io_trps.svl 2018.10)
