@<TRIPOS>MOLECULE
PAC
17 17 1 0 0 
SMALL
USER_CHARGES


@<TRIPOS>ATOM
  1 C        2.4216   -16.3434   -39.9836 C.2   1 <1>   0.9060 
  2 C        2.9709   -16.5393   -41.3774 C.3   1 <1>  -0.1225 
  3 H        2.6561   -15.6979   -41.9743 H     1 <1>   0.0800 
  4 H        2.5918   -17.4780   -41.7492 H     1 <1>   0.0800 
  5 C        4.4919   -16.5851   -41.3103 C.ar  1 <1>  -0.1435 
  6 C        5.1516   -17.7998   -41.1375 C.ar  1 <1>  -0.1500 
  7 H        4.5871   -18.6906   -41.0294 H     1 <1>   0.1500 
  8 C        6.5424   -17.8452   -41.0930 C.ar  1 <1>  -0.1500 
  9 H        7.0352   -18.7731   -40.9609 H     1 <1>   0.1500 
 10 C        7.2812   -16.6719   -41.2135 C.ar  1 <1>  -0.1500 
 11 H        8.3391   -16.7050   -41.1779 H     1 <1>   0.1500 
 12 C        6.6264   -15.4539   -41.3704 C.ar  1 <1>  -0.1500 
 13 H        7.1833   -14.5567   -41.4500 H     1 <1>   0.1500 
 14 C        5.2354   -15.4116   -41.4145 C.ar  1 <1>  -0.1500 
 15 H        4.7347   -14.4827   -41.5173 H     1 <1>   0.1500 
 16 O        2.1304   -17.3696   -39.3290 O.co2 1 <1>  -0.9000 
 17 O        2.2175   -15.1685   -39.6037 O.co2 1 <1>  -0.9000 
@<TRIPOS>BOND
  1   1   2  1   
  2   1  16  ar  
  3   1  17  ar  
  4   2   3  1   
  5   2   4  1   
  6   2   5  1   
  7   5   6  ar  
  8   5  14  ar  
  9   6   7  1   
 10   6   8  ar  
 11   8   9  1   
 12   8  10  ar  
 13  10  11  1   
 14  10  12  ar  
 15  12  13  1   
 16  12  14  ar  
 17  14  15  1   
@<TRIPOS>SUBSTRUCTURE
  1 ****   5 GROUP 4 **** **** 0

# MOE 2019.01 (io_trps.svl 2018.10)
