@<TRIPOS>MOLECULE
5TU
32 33 1 0 0 
SMALL
USER_CHARGES


@<TRIPOS>ATOM
  1 N      -68.5131    92.1002    -0.6663 N.am  1 <1>  -0.8000 
  2 C      -59.9216    94.1443    -0.1384 C.2   1 <1>  -0.1238 
  3 C      -59.1432    95.4365    -0.3131 C.3   1 <1>  -0.1018 
  4 C      -59.1881    92.9133     0.0262 C.2   1 <1>   0.6156 
  5 C      -63.4679    92.9221     0.0263 C.ar  1 <1>   0.0284 
  6 C      -64.1827    93.8794     0.7586 C.ar  1 <1>  -0.1500 
  7 C      -66.3004    92.9414     0.0230 C.ar  1 <1>   0.0862 
  8 C      -67.7692    92.9800     0.0402 C.2   1 <1>   0.5438 
  9 O      -68.4277    93.7870     0.6745 O.2   1 <1>  -0.5700 
 10 C      -65.5714    93.8892     0.7561 C.ar  1 <1>  -0.1500 
 11 C      -65.5834    91.9791    -0.7085 C.ar  1 <1>  -0.1500 
 12 C      -64.1938    91.9721    -0.7055 C.ar  1 <1>  -0.1500 
 13 C      -62.0102    92.9137     0.0259 C.2   1 <1>  -0.0284 
 14 C      -61.3072    91.7417     0.1814 C.2   1 <1>  -0.0410 
 15 C      -61.2857    94.1368    -0.1384 C.2   1 <1>  -0.1500 
 16 O      -57.9512    92.8267     0.0396 O.2   1 <1>  -0.5700 
 17 N      -59.9242    91.7334     0.1809 N.am  1 <1>  -0.4691 
 18 C      -59.2031    90.4614     0.3539 C.3   1 <1>   0.0601 
 19 H      -68.0881    91.3777    -1.2550 H     1 <1>   0.3700 
 20 H      -69.5351    92.1955    -0.6064 H     1 <1>   0.3700 
 21 H      -58.5351    95.5637     0.5725 H     1 <1>   0.0800 
 22 H      -58.5251    95.3190    -1.1930 H     1 <1>   0.0800 
 23 H      -59.8395    96.2546    -0.4308 H     1 <1>   0.0800 
 24 H      -63.6565    94.6016     1.3286 H     1 <1>   0.1500 
 25 H      -66.0924    94.6228     1.3187 H     1 <1>   0.1500 
 26 H      -66.0987    91.2477    -1.2734 H     1 <1>   0.1500 
 27 H      -63.6724    91.2432    -1.2716 H     1 <1>   0.1500 
 28 H      -61.7684    90.7955     0.3158 H     1 <1>   0.1500 
 29 H      -61.8275    95.0384    -0.2679 H     1 <1>   0.1500 
 30 H      -58.5973    90.5536     1.2460 H     1 <1>   0.0800 
 31 H      -59.9182    89.6567     0.4524 H     1 <1>   0.0800 
 32 H      -58.5807    90.3223    -0.5206 H     1 <1>   0.0800 
@<TRIPOS>BOND
  1   1   8  am  
  2   1  19  1   
  3   1  20  1   
  4   2   3  1   
  5   2   4  1   
  6   2  15  2   
  7   3  21  1   
  8   3  22  1   
  9   3  23  1   
 10   4  16  2   
 11   4  17  am  
 12   5   6  ar  
 13   5  12  ar  
 14   5  13  1   
 15   6  10  ar  
 16   6  24  1   
 17   7   8  1   
 18   7  10  ar  
 19   7  11  ar  
 20   8   9  2   
 21  10  25  1   
 22  11  12  ar  
 23  11  26  1   
 24  12  27  1   
 25  13  14  2   
 26  13  15  1   
 27  14  17  1   
 28  14  28  1   
 29  15  29  1   
 30  17  18  1   
 31  18  30  1   
 32  18  31  1   
 33  18  32  1   
@<TRIPOS>SUBSTRUCTURE
  1 ****   5 GROUP 4 **** **** 0

# MOE 2019.01 (io_trps.svl 2018.10)
