@<TRIPOS>MOLECULE
1VK
21 22 1 0 0 
SMALL
USER_CHARGES


@<TRIPOS>ATOM
  1 C       -2.6068     0.2478     0.1763 C.2   1 <1>   0.3718 
  2 C       -1.2736    -0.1537     0.1735 C.2   1 <1>   0.2028 
  3 C       -0.1430     0.6567    -0.2594 C.2   1 <1>   0.5698 
  4 C        2.2425     1.1200     0.2409 C.ar  1 <1>  -0.1500 
  5 C        3.5690     0.7217     0.3617 C.ar  1 <1>  -0.1500 
  6 C        3.9274    -0.5956     0.0950 C.ar  1 <1>  -0.1500 
  7 C        2.9586    -1.5131    -0.2984 C.ar  1 <1>  -0.1500 
  8 C        1.6313    -1.1176    -0.4213 C.ar  1 <1>  -0.1500 
  9 N       -3.1442     1.4804    -0.1775 N.pl3 1 <1>  -0.8830 
 10 N       -3.3624    -0.6906     0.5766 N.2   1 <1>  -0.4097 
 11 O       -2.4979    -1.6707     0.8454 O.3   1 <1>   0.2418 
 12 N       -1.2385    -1.3704     0.6136 N.2   1 <1>  -0.4097 
 13 O       -0.3469     1.7718    -0.7402 O.2   1 <1>  -0.5700 
 14 C        1.2485     0.2057    -0.1427 C.ar  1 <1>   0.0862 
 15 H        1.9785     2.1282     0.4403 H     1 <1>   0.1500 
 16 H        4.3092     1.4223     0.6559 H     1 <1>   0.1500 
 17 H        4.9392    -0.8996     0.1887 H     1 <1>   0.1500 
 18 H        3.2348    -2.5160    -0.5067 H     1 <1>   0.1500 
 19 H        0.9102    -1.8283    -0.7348 H     1 <1>   0.1500 
 20 H       -4.1066     1.3990    -0.5315 H     1 <1>   0.4000 
 21 H       -2.5001     2.0412    -0.7638 H     1 <1>   0.4000 
@<TRIPOS>BOND
  1   1   2  1   
  2   1   9  1   
  3   1  10  2   
  4   2   3  1   
  5   2  12  2   
  6   3  13  2   
  7   3  14  1   
  8   4   5  ar  
  9   4  14  ar  
 10   4  15  1   
 11   5   6  ar  
 12   5  16  1   
 13   6   7  ar  
 14   6  17  1   
 15   7   8  ar  
 16   7  18  1   
 17   8  14  ar  
 18   8  19  1   
 19   9  20  1   
 20   9  21  1   
 21  10  11  1   
 22  11  12  1   
@<TRIPOS>SUBSTRUCTURE
  1 ****   3 GROUP 4 **** **** 0

# MOE 2019.01 (io_trps.svl 2018.10)
