@<TRIPOS>MOLECULE
YE6
25 26 1 0 0 
SMALL
USER_CHARGES


@<TRIPOS>ATOM
  1 CL      86.2152    28.4751     5.4285 Cl    1 <1>  -0.1770 
  2 C       87.2751    29.7915     5.0059 C.ar  1 <1>   0.1770 
  3 C       88.5902    29.4659     4.6673 C.ar  1 <1>  -0.1500 
  4 C       89.5040    30.4654     4.3596 C.ar  1 <1>  -0.1500 
  5 C       89.1086    31.7993     4.3878 C.ar  1 <1>  -0.1500 
  6 C       87.7993    32.1305     4.7168 C.ar  1 <1>  -0.1500 
  7 C       86.8524    31.1414     5.0243 C.ar  1 <1>   0.0530 
  8 C       85.4894    31.5418     5.3487 C.2   1 <1>   0.0870 
  9 O       84.4095    30.7924     4.9868 O.3   1 <1>  -0.2800 
 10 C       85.0302    32.6559     5.9913 C.2   1 <1>  -0.1500 
 11 C       83.6421    32.5835     6.0338 C.2   1 <1>  -0.1500 
 12 C       83.2727    31.4269     5.4153 C.2   1 <1>   0.0550 
 13 C       81.9555    30.8564     5.1923 C.2   1 <1>   0.7150 
 14 O       80.8890    31.3889     5.5346 O.2   1 <1>  -0.5700 
 15 N       81.8865    29.6402     4.5673 N.am  1 <1>  -0.4210 
 16 N       80.5857    28.9539     4.2278 N.3   1 <1>  -0.7290 
 17 H       88.8868    28.4488     4.6527 H     1 <1>   0.1500 
 18 H       90.5030    30.2142     4.1052 H     1 <1>   0.1500 
 19 H       89.8078    32.5625     4.1551 H     1 <1>   0.1500 
 20 H       87.5110    33.1503     4.7257 H     1 <1>   0.1500 
 21 H       85.6295    33.4329     6.3904 H     1 <1>   0.1500 
 22 H       82.9798    33.2890     6.4674 H     1 <1>   0.1500 
 23 H       80.3818    28.3031     5.0066 H     1 <1>   0.3600 
 24 H       82.7810    29.2049     4.2712 H     1 <1>   0.3700 
 25 H       79.8640    29.6945     4.3442 H     1 <1>   0.3600 
@<TRIPOS>BOND
  1   1   2  1   
  2   2   3  ar  
  3   2   7  ar  
  4   3   4  ar  
  5   3  17  1   
  6   4   5  ar  
  7   4  18  1   
  8   5   6  ar  
  9   5  19  1   
 10   6   7  ar  
 11   6  20  1   
 12   7   8  1   
 13   8   9  1   
 14   8  10  2   
 15   9  12  1   
 16  10  11  1   
 17  10  21  1   
 18  11  12  2   
 19  11  22  1   
 20  12  13  1   
 21  13  14  2   
 22  13  15  am  
 23  15  16  1   
 24  15  24  1   
 25  16  23  1   
 26  16  25  1   
@<TRIPOS>SUBSTRUCTURE
  1 ****   9 GROUP 4 **** **** 0

# MOE 2019.01 (io_trps.svl 2018.10)
