@<TRIPOS>MOLECULE
Z46
34 35 1 0 0 
SMALL
USER_CHARGES


@<TRIPOS>ATOM
  1 N        2.2562    -1.6103    -0.1559 N.2   1 <1>  -0.7068 
  2 N        1.1857    -2.4338    -0.1251 N.pl3 1 <1>   0.2996 
  3 C        0.0183    -1.7596    -0.0187 C.2   1 <1>  -0.3316 
  4 C        0.3491    -0.4538     0.0101 C.2   1 <1>  -0.1810 
  5 C        1.7474    -0.3795    -0.0681 C.2   1 <1>   0.2028 
  6 C        2.5589     0.8445    -0.0547 C.2   1 <1>   0.7160 
  7 N        3.9173     0.6890    -0.1344 N.am  1 <1>  -0.4210 
  8 N        4.9025     1.8361    -0.0920 N.3   1 <1>  -0.7290 
  9 O        2.1297     2.0098     0.0182 O.2   1 <1>  -0.5700 
 10 C       -1.3584    -2.3797     0.0259 C.3   1 <1>   0.0200 
 11 C       -2.3044    -1.2666     0.5178 C.3   1 <1>  -0.1600 
 12 C       -2.0627     0.0812    -0.2098 C.3   1 <1>  -0.0800 
 13 C       -0.6697     0.6613     0.1448 C.3   1 <1>   0.0210 
 14 C       -3.1296     1.1420     0.1341 C.3   1 <1>  -0.1600 
 15 C       -4.5337     0.8051    -0.3944 C.3   1 <1>  -0.1600 
 16 C       -5.4953     1.9719    -0.1449 C.3   1 <1>  -0.2400 
 17 H        1.2705    -3.4666    -0.1782 H     1 <1>   0.2700 
 18 H        4.2602    -0.2911    -0.1691 H     1 <1>   0.3700 
 19 H        5.0806     2.1035    -1.0757 H     1 <1>   0.3600 
 20 H        4.3465     2.6366     0.2712 H     1 <1>   0.3600 
 21 H       -1.6486    -2.6983    -0.9768 H     1 <1>   0.0800 
 22 H       -1.3868    -3.2270     0.7126 H     1 <1>   0.0800 
 23 H       -3.3262    -1.6067     0.3583 H     1 <1>   0.0800 
 24 H       -2.1568    -1.1219     1.5894 H     1 <1>   0.0800 
 25 H       -2.0884    -0.0976    -1.2871 H     1 <1>   0.0800 
 26 H       -0.6580     1.0256     1.1728 H     1 <1>   0.0800 
 27 H       -0.4239     1.4794    -0.5336 H     1 <1>   0.0800 
 28 H       -3.1749     1.2724     1.2172 H     1 <1>   0.0800 
 29 H       -2.8226     2.0931    -0.3059 H     1 <1>   0.0800 
 30 H       -4.4834     0.6075    -1.4670 H     1 <1>   0.0800 
 31 H       -4.9246    -0.0796     0.1091 H     1 <1>   0.0800 
 32 H       -6.4870     1.7145    -0.5188 H     1 <1>   0.0800 
 33 H       -5.5631     2.1786     0.9242 H     1 <1>   0.0800 
 34 H       -5.1435     2.8651    -0.6632 H     1 <1>   0.0800 
@<TRIPOS>BOND
  1   1   2  1   
  2   1   5  2   
  3   2   3  1   
  4   2  17  1   
  5   3   4  2   
  6   3  10  1   
  7   4   5  1   
  8   4  13  1   
  9   5   6  1   
 10   6   7  am  
 11   6   9  2   
 12   7   8  1   
 13   7  18  1   
 14   8  19  1   
 15   8  20  1   
 16  10  11  1   
 17  10  21  1   
 18  10  22  1   
 19  11  12  1   
 20  11  23  1   
 21  11  24  1   
 22  12  13  1   
 23  12  14  1   
 24  12  25  1   
 25  13  26  1   
 26  13  27  1   
 27  14  15  1   
 28  14  28  1   
 29  14  29  1   
 30  15  16  1   
 31  15  30  1   
 32  15  31  1   
 33  16  32  1   
 34  16  33  1   
 35  16  34  1   
@<TRIPOS>SUBSTRUCTURE
  1 ****   4 GROUP 4 **** **** 0

# MOE 2019.01 (io_trps.svl 2018.10)
