TYE
     RDKit          3D

 12 12  0  0  0  0  0  0  0  0999 V2000
   77.3339    4.2765   28.4518 C   0  0  0  0  0  0  0  0  0  0  0  0
   77.5317    3.3412   29.6294 C   0  0  0  0  0  0  0  0  0  0  0  0
   78.2090    0.6949   32.7906 O   0  0  0  0  0  0  0  0  0  0  0  0
   77.9808    1.5487   31.7568 C   0  0  0  0  0  0  0  0  0  0  0  0
   76.7894    2.1458   29.7126 C   0  0  0  0  0  0  0  0  0  0  0  0
   78.4919    3.6441   30.6157 C   0  0  0  0  0  0  0  0  0  0  0  0
   77.0103    1.2501   30.7748 C   0  0  0  0  0  0  0  0  0  0  0  0
   78.7183    2.7479   31.6747 C   0  0  0  0  0  0  0  0  0  0  0  0
   76.8238    6.5955   29.1012 N   0  0  0  0  0  0  0  0  0  0  0  0
   77.9140    5.6733   28.7185 C   0  0  2  0  0  0  0  0  0  0  0  0
   78.6333    6.2088   27.4626 C   0  0  0  0  0  0  0  0  0  0  0  0
   78.9618    5.1101   26.6150 O   0  0  0  0  0  0  0  0  0  0  0  0
 11 12  1  0
 11 10  1  0
 10  9  1  6
 10  1  1  0
  1  2  1  0
  2  5  2  0
  2  6  1  0
  3  4  1  0
  4  7  2  0
  4  8  1  0
  5  7  1  0
  6  8  2  0
M  CHG  1   9   1
M  END
>  <minimizedAffinity>  (1) 
-5.75294

$$$$
