TYE
     RDKit          3D

 12 12  0  0  0  0  0  0  0  0999 V2000
   59.1055   23.7587   29.4660 C   0  0  0  0  0  0  0  0  0  0  0  0
   60.3159   23.2469   28.7087 C   0  0  0  0  0  0  0  0  0  0  0  0
   63.5930   21.9187   26.4834 O   0  0  0  0  0  0  0  0  0  0  0  0
   62.5203   22.3412   27.2052 C   0  0  0  0  0  0  0  0  0  0  0  0
   60.2914   21.9644   28.1243 C   0  0  0  0  0  0  0  0  0  0  0  0
   61.4472   24.0724   28.5486 C   0  0  0  0  0  0  0  0  0  0  0  0
   61.3915   21.5090   27.3749 C   0  0  0  0  0  0  0  0  0  0  0  0
   62.5449   23.6216   27.7953 C   0  0  0  0  0  0  0  0  0  0  0  0
   57.2983   23.1886   31.0373 N   0  0  0  0  0  0  0  0  0  0  0  0
   58.6094   22.7507   30.5132 C   0  0  2  0  0  0  0  0  0  0  0  0
   59.6215   22.6328   31.6721 C   0  0  0  0  0  0  0  0  0  0  0  0
   58.9098   22.6258   32.9078 O   0  0  0  0  0  0  0  0  0  0  0  0
 11 12  1  0
 11 10  1  0
 10  9  1  1
 10  1  1  0
  1  2  1  0
  2  5  2  0
  2  6  1  0
  3  4  1  0
  4  7  2  0
  4  8  1  0
  5  7  1  0
  6  8  2  0
M  CHG  1   9   1
M  END
>  <minimizedAffinity>  (1) 
-5.99701

$$$$
