TYE
     RDKit          3D

 12 12  0  0  0  0  0  0  0  0999 V2000
   58.3115   33.3503   36.9470 C   0  0  0  0  0  0  0  0  0  0  0  0
   58.9936   32.0252   36.6650 C   0  0  0  0  0  0  0  0  0  0  0  0
   60.7366   28.2952   35.9552 O   0  0  0  0  0  0  0  0  0  0  0  0
   60.1748   29.5100   36.1968 C   0  0  0  0  0  0  0  0  0  0  0  0
   59.9193   31.4983   37.5883 C   0  0  0  0  0  0  0  0  0  0  0  0
   58.6661   31.2978   35.5030 C   0  0  0  0  0  0  0  0  0  0  0  0
   60.5120   30.2437   37.3559 C   0  0  0  0  0  0  0  0  0  0  0  0
   59.2526   30.0415   35.2717 C   0  0  0  0  0  0  0  0  0  0  0  0
   56.2380   34.4803   37.6421 N   0  0  0  0  0  0  0  0  0  0  0  0
   56.8139   33.1792   37.2410 C   0  0  2  0  0  0  0  0  0  0  0  0
   56.5985   32.1446   38.3657 C   0  0  0  0  0  0  0  0  0  0  0  0
   55.4199   31.3935   38.0826 O   0  0  0  0  0  0  0  0  0  0  0  0
 11 12  1  0
 11 10  1  0
 10  9  1  1
 10  1  1  0
  1  2  1  0
  2  5  2  0
  2  6  1  0
  3  4  1  0
  4  7  2  0
  4  8  1  0
  5  7  1  0
  6  8  2  0
M  CHG  1   9   1
M  END
>  <minimizedAffinity>  (1) 
-5.26645

$$$$
