TYE
     RDKit          3D

 12 12  0  0  0  0  0  0  0  0999 V2000
   61.6950   20.1836   26.5454 C   0  0  0  0  0  0  0  0  0  0  0  0
   61.6487   21.4540   27.3728 C   0  0  0  0  0  0  0  0  0  0  0  0
   61.4151   25.0207   29.5359 O   0  0  0  0  0  0  0  0  0  0  0  0
   61.5008   23.8637   28.8261 C   0  0  0  0  0  0  0  0  0  0  0  0
   62.6478   22.4356   27.2138 C   0  0  0  0  0  0  0  0  0  0  0  0
   60.5808   21.6742   28.2659 C   0  0  0  0  0  0  0  0  0  0  0  0
   62.5774   23.6386   27.9397 C   0  0  0  0  0  0  0  0  0  0  0  0
   60.5054   22.8780   28.9878 C   0  0  0  0  0  0  0  0  0  0  0  0
   63.0810   18.3017   25.7727 N   0  0  0  0  0  0  0  0  0  0  0  0
   63.0019   19.4044   26.7541 C   0  0  2  0  0  0  0  0  0  0  0  0
   63.0682   18.8337   28.1864 C   0  0  0  0  0  0  0  0  0  0  0  0
   64.2392   19.3332   28.8287 O   0  0  0  0  0  0  0  0  0  0  0  0
 11 12  1  0
 11 10  1  0
 10  9  1  6
 10  1  1  0
  1  2  1  0
  2  5  2  0
  2  6  1  0
  3  4  1  0
  4  7  2  0
  4  8  1  0
  5  7  1  0
  6  8  2  0
M  CHG  1   9   1
M  END
>  <minimizedAffinity>  (1) 
-5.91430

$$$$
