TYE
     RDKit          3D

 12 12  0  0  0  0  0  0  0  0999 V2000
   58.9842   19.3808   26.4735 C   0  0  0  0  0  0  0  0  0  0  0  0
   60.0035   20.4287   26.8779 C   0  0  0  0  0  0  0  0  0  0  0  0
   62.8630   23.2111   28.1174 O   0  0  0  0  0  0  0  0  0  0  0  0
   61.9241   22.3106   27.7208 C   0  0  0  0  0  0  0  0  0  0  0  0
   59.6284   21.4831   27.7349 C   0  0  0  0  0  0  0  0  0  0  0  0
   61.3374   20.3214   26.4352 C   0  0  0  0  0  0  0  0  0  0  0  0
   60.5849   22.4251   28.1556 C   0  0  0  0  0  0  0  0  0  0  0  0
   62.2958   21.2582   26.8590 C   0  0  0  0  0  0  0  0  0  0  0  0
   59.7157   17.1603   25.7026 N   0  0  0  0  0  0  0  0  0  0  0  0
   59.4062   17.9676   26.9018 C   0  0  2  0  0  0  0  0  0  0  0  0
   58.2807   17.2893   27.7109 C   0  0  0  0  0  0  0  0  0  0  0  0
   58.0727   15.9743   27.2000 O   0  0  0  0  0  0  0  0  0  0  0  0
 11 12  1  0
 11 10  1  0
 10  9  1  6
 10  1  1  0
  1  2  1  0
  2  5  2  0
  2  6  1  0
  3  4  1  0
  4  7  2  0
  4  8  1  0
  5  7  1  0
  6  8  2  0
M  CHG  1   9   1
M  END
>  <minimizedAffinity>  (1) 
-5.21166

$$$$
