TYE
     RDKit          3D

 12 12  0  0  0  0  0  0  0  0999 V2000
   60.2746   22.4824   28.4439 C   0  0  0  0  0  0  0  0  0  0  0  0
   60.1937   21.2227   27.6030 C   0  0  0  0  0  0  0  0  0  0  0  0
   60.0229   17.8438   25.1516 O   0  0  0  0  0  0  0  0  0  0  0  0
   60.0670   18.9459   25.9474 C   0  0  0  0  0  0  0  0  0  0  0  0
   58.9657   20.8360   27.0288 C   0  0  0  0  0  0  0  0  0  0  0  0
   61.3562   20.4647   27.3563 C   0  0  0  0  0  0  0  0  0  0  0  0
   58.8994   19.6986   26.2035 C   0  0  0  0  0  0  0  0  0  0  0  0
   61.2933   19.3313   26.5274 C   0  0  0  0  0  0  0  0  0  0  0  0
   61.7916   23.5252   30.0783 N   0  0  0  0  0  0  0  0  0  0  0  0
   61.7257   22.8825   28.7486 C   0  0  2  0  0  0  0  0  0  0  0  0
   62.2559   23.8538   27.6730 C   0  0  0  0  0  0  0  0  0  0  0  0
   63.4617   23.3240   27.1264 O   0  0  0  0  0  0  0  0  0  0  0  0
 11 12  1  0
 11 10  1  0
 10  9  1  1
 10  1  1  0
  1  2  1  0
  2  5  2  0
  2  6  1  0
  3  4  1  0
  4  7  2  0
  4  8  1  0
  5  7  1  0
  6  8  2  0
M  CHG  1   9   1
M  END
>  <minimizedAffinity>  (1) 
-5.39141

$$$$
