TYE
     RDKit          3D

 12 12  0  0  0  0  0  0  0  0999 V2000
   77.2735    4.2835   28.4354 C   0  0  0  0  0  0  0  0  0  0  0  0
   77.5348    3.3216   29.5786 C   0  0  0  0  0  0  0  0  0  0  0  0
   78.1208    0.7394   32.8104 O   0  0  0  0  0  0  0  0  0  0  0  0
   77.9376    1.5877   31.7631 C   0  0  0  0  0  0  0  0  0  0  0  0
   78.4775    3.6492   30.5741 C   0  0  0  0  0  0  0  0  0  0  0  0
   76.8005    2.1220   29.6714 C   0  0  0  0  0  0  0  0  0  0  0  0
   78.6820    2.7842   31.6647 C   0  0  0  0  0  0  0  0  0  0  0  0
   76.9991    1.2593   30.7632 C   0  0  0  0  0  0  0  0  0  0  0  0
   76.8269    6.6047   29.1227 N   0  0  0  0  0  0  0  0  0  0  0  0
   77.8866    5.6680   28.6926 C   0  0  2  0  0  0  0  0  0  0  0  0
   78.5687    6.2027   27.4158 C   0  0  0  0  0  0  0  0  0  0  0  0
   78.9630    5.0976   26.6054 O   0  0  0  0  0  0  0  0  0  0  0  0
 11 12  1  0
 11 10  1  0
 10  9  1  6
 10  1  1  0
  1  2  1  0
  2  5  2  0
  2  6  1  0
  3  4  1  0
  4  7  2  0
  4  8  1  0
  5  7  1  0
  6  8  2  0
M  CHG  1   9   1
M  END
>  <minimizedAffinity>  (1) 
-5.75593

$$$$
