@<TRIPOS>MOLECULE
TYE
26 26 1 0 0 
SMALL
USER_CHARGES


@<TRIPOS>ATOM
  1 C       -2.9283     1.0172     1.9286 C.3   1 <1>   0.1200 
  2 N       -1.1514    -0.0025     3.3113 N.4   1 <1>  -0.8530 
  3 O       -3.0852    -0.3251     1.4735 O.3   1 <1>  -0.6800 
  4 C       -1.5077     1.1858     2.5073 C.3   1 <1>   0.4230 
  5 C       -0.4840     1.3654     1.3766 C.3   1 <1>  -0.0165 
  6 C        0.9441     1.3107     1.8847 C.ar  1 <1>  -0.1435 
  7 O        4.8213     1.0784     3.4237 O.3   1 <1>  -0.5325 
  8 C        3.5578     1.1647     2.9277 C.ar  1 <1>   0.0825 
  9 C        1.4840     2.4056     2.5895 C.ar  1 <1>  -0.1500 
 10 C        1.7154     0.1465     1.6938 C.ar  1 <1>  -0.1500 
 11 C        2.7894     2.3360     3.1095 C.ar  1 <1>  -0.1500 
 12 C        3.0177     0.0727     2.2175 C.ar  1 <1>  -0.1500 
 13 H       -3.0850     1.7235     1.1095 H     1 <1>   0.0800 
 14 H       -3.6622     1.2221     2.7110 H     1 <1>   0.0800 
 15 H       -1.3372    -0.8000     2.7111 H     1 <1>   0.4500 
 16 H       -1.7380    -0.0867     4.1256 H     1 <1>   0.4500 
 17 H       -3.9347    -0.4279     1.0189 H     1 <1>   0.4000 
 18 H       -1.4727     2.0852     3.1281 H     1 <1>   0.0800 
 19 H       -0.1679     0.0337     3.5542 H     1 <1>   0.4500 
 20 H       -0.6265     0.5874     0.6241 H     1 <1>   0.0800 
 21 H       -0.6502     2.3272     0.8885 H     1 <1>   0.0800 
 22 H        5.1204     1.8799     3.8571 H     1 <1>   0.4500 
 23 H        0.9122     3.3139     2.7252 H     1 <1>   0.1500 
 24 H        1.3281    -0.6930     1.1314 H     1 <1>   0.1500 
 25 H        3.2052     3.1807     3.6394 H     1 <1>   0.1500 
 26 H        3.6221    -0.8112     2.0675 H     1 <1>   0.1500 
@<TRIPOS>BOND
  1   1   3  1   
  2   1   4  1   
  3   1  13  1   
  4   1  14  1   
  5   2   4  1   
  6   2  15  1   
  7   2  16  1   
  8   2  19  1   
  9   3  17  1   
 10   4   5  1   
 11   4  18  1   
 12   5   6  1   
 13   5  20  1   
 14   5  21  1   
 15   6   9  ar  
 16   6  10  ar  
 17   7   8  1   
 18   7  22  1   
 19   8  11  ar  
 20   8  12  ar  
 21   9  11  ar  
 22   9  23  1   
 23  10  12  ar  
 24  10  24  1   
 25  11  25  1   
 26  12  26  1   
@<TRIPOS>SUBSTRUCTURE
  1 ****   6 GROUP 4 **** **** 0

# MOE 2019.01 (io_trps.svl 2018.10)
