TYE
     RDKit          3D

 12 12  0  0  0  0  0  0  0  0999 V2000
   77.7526    3.7624   30.3207 C   0  0  0  0  0  0  0  0  0  0  0  0
   77.8868    4.2373   28.8864 C   0  0  0  0  0  0  0  0  0  0  0  0
   78.4231    5.5074   24.9425 O   0  0  0  0  0  0  0  0  0  0  0  0
   78.2503    5.1050   26.2302 C   0  0  0  0  0  0  0  0  0  0  0  0
   78.0804    5.6064   28.6123 C   0  0  0  0  0  0  0  0  0  0  0  0
   77.8657    3.3038   27.8306 C   0  0  0  0  0  0  0  0  0  0  0  0
   78.2602    6.0424   27.2869 C   0  0  0  0  0  0  0  0  0  0  0  0
   78.0509    3.7366   26.5062 C   0  0  0  0  0  0  0  0  0  0  0  0
   80.1477    3.3564   29.9226 N   0  0  0  0  0  0  0  0  0  0  0  0
   79.0095    3.0255   30.8062 C   0  0  2  0  0  0  0  0  0  0  0  0
   78.7757    1.5001   30.8063 C   0  0  0  0  0  0  0  0  0  0  0  0
   77.3999    1.2439   31.0803 O   0  0  0  0  0  0  0  0  0  0  0  0
 11 12  1  0
 11 10  1  0
 10  9  1  6
 10  1  1  0
  1  2  1  0
  2  5  2  0
  2  6  1  0
  3  4  1  0
  4  7  2  0
  4  8  1  0
  5  7  1  0
  6  8  2  0
M  CHG  1   9   1
M  END
>  <minimizedAffinity>  (1) 
-5.07222

$$$$
