TYE


 17 17  0  0  0  0  0  0  0  0999 V2000
   65.4436   14.1410   25.0682 C   0  0  0  0  0  0  0  0  0  0  0  0
   66.6653   14.2168   24.1724 C   0  0  0  0  0  0  0  0  0  0  0  0
   70.1286   14.4002   21.8428 O   0  0  0  0  0  0  0  0  0  0  0  0
   69.0014   14.3523   22.6024 C   0  0  0  0  0  0  0  0  0  0  0  0
   67.2240   15.4693   23.8468 C   0  0  0  0  0  0  0  0  0  0  0  0
   67.2701   13.0326   23.7047 C   0  0  0  0  0  0  0  0  0  0  0  0
   68.3892   15.5397   23.0614 C   0  0  0  0  0  0  0  0  0  0  0  0
   68.4375   13.1006   22.9247 C   0  0  0  0  0  0  0  0  0  0  0  0
   70.4188   15.2916   21.6403 H   0  0  0  0  0  0  0  0  0  0  0  0
   66.8412   14.1193   27.0945 N   0  0  0  0  0  0  0  0  0  0  0  0
   65.6924   14.7821   26.4414 C   0  0  0  0  0  0  0  0  0  0  0  0
   66.5142   13.1892   27.3366 H   0  0  0  0  0  0  0  0  0  0  0  0
   67.1005   14.5865   27.9482 H   0  0  0  0  0  0  0  0  0  0  0  0
   67.6158   14.0617   26.4432 H   0  0  0  0  0  0  0  0  0  0  0  0
   64.4397   14.6529   27.3333 C   0  0  0  0  0  0  0  0  0  0  0  0
   63.8357   13.3824   27.0998 O   0  0  0  0  0  0  0  0  0  0  0  0
   62.9947   13.3182   27.5768 H   0  0  0  0  0  0  0  0  0  0  0  0
 15 16  1  0  0  0
 15 11  1  0  0  0
 10 11  1  0  0  0
 10 12  1  0  0  0
 10 13  1  0  0  0
 10 14  1  0  0  0
 16 17  1  0  0  0
 11  1  1  0  0  0
  1  2  1  0  0  0
  2  5  2  0  0  0
  2  6  1  0  0  0
  3  4  1  0  0  0
  3  9  1  0  0  0
  4  7  2  0  0  0
  4  8  1  0  0  0
  5  7  1  0  0  0
  6  8  2  0  0  0
M  CHG 1  10   1
M  END
> <minimizedAffinity>
-6.74019

$$$$
TYE


 17 17  0  0  0  0  0  0  0  0999 V2000
   65.8830   15.8388   25.7430 C   0  0  0  0  0  0  0  0  0  0  0  0
   66.7372   15.0317   24.7840 C   0  0  0  0  0  0  0  0  0  0  0  0
   68.9684   12.8277   22.0237 O   0  0  0  0  0  0  0  0  0  0  0  0
   68.2372   13.5351   22.9264 C   0  0  0  0  0  0  0  0  0  0  0  0
   66.6768   13.6235   24.8004 C   0  0  0  0  0  0  0  0  0  0  0  0
   67.5553   15.6907   23.8442 C   0  0  0  0  0  0  0  0  0  0  0  0
   67.4263   12.8739   23.8754 C   0  0  0  0  0  0  0  0  0  0  0  0
   68.3005   14.9439   22.9154 C   0  0  0  0  0  0  0  0  0  0  0  0
   68.8954   11.8773   22.1292 H   0  0  0  0  0  0  0  0  0  0  0  0
   63.4667   16.2921   25.6191 N   0  0  0  0  0  0  0  0  0  0  0  0
   64.4743   15.2478   25.9009 C   0  0  0  0  0  0  0  0  0  0  0  0
   63.5264   16.9416   26.3971 H   0  0  0  0  0  0  0  0  0  0  0  0
   62.5343   15.9116   25.6065 H   0  0  0  0  0  0  0  0  0  0  0  0
   63.6968   16.7611   24.7504 H   0  0  0  0  0  0  0  0  0  0  0  0
   64.2742   14.7020   27.3304 C   0  0  0  0  0  0  0  0  0  0  0  0
   65.5520   14.4593   27.9151 O   0  0  0  0  0  0  0  0  0  0  0  0
   65.4501   14.0261   28.7758 H   0  0  0  0  0  0  0  0  0  0  0  0
 15 16  1  0  0  0
 15 11  1  0  0  0
 10 11  1  0  0  0
 10 12  1  0  0  0
 10 13  1  0  0  0
 10 14  1  0  0  0
 16 17  1  0  0  0
 11  1  1  0  0  0
  1  2  1  0  0  0
  2  5  2  0  0  0
  2  6  1  0  0  0
  3  4  1  0  0  0
  3  9  1  0  0  0
  4  7  2  0  0  0
  4  8  1  0  0  0
  5  7  1  0  0  0
  6  8  2  0  0  0
M  CHG 1  10   1
M  END
> <minimizedAffinity>
-6.07859

$$$$
TYE


 17 17  0  0  0  0  0  0  0  0999 V2000
   58.9898   23.6407   29.3334 C   0  0  0  0  0  0  0  0  0  0  0  0
   60.2025   23.1685   28.5542 C   0  0  0  0  0  0  0  0  0  0  0  0
   63.6003   21.7921   26.5503 O   0  0  0  0  0  0  0  0  0  0  0  0
   62.4998   22.2504   27.2051 C   0  0  0  0  0  0  0  0  0  0  0  0
   61.3181   24.0170   28.4041 C   0  0  0  0  0  0  0  0  0  0  0  0
   60.2329   21.8641   28.0212 C   0  0  0  0  0  0  0  0  0  0  0  0
   62.4655   23.5617   27.7292 C   0  0  0  0  0  0  0  0  0  0  0  0
   61.3805   21.4052   27.3516 C   0  0  0  0  0  0  0  0  0  0  0  0
   64.2967   22.4457   26.4636 H   0  0  0  0  0  0  0  0  0  0  0  0
   57.2735   23.0213   30.9857 N   0  0  0  0  0  0  0  0  0  0  0  0
   58.6057   22.6634   30.4541 C   0  0  0  0  0  0  0  0  0  0  0  0
   57.4081   23.8947   31.4855 H   0  0  0  0  0  0  0  0  0  0  0  0
   56.9434   22.3364   31.6462 H   0  0  0  0  0  0  0  0  0  0  0  0
   56.6247   23.1515   30.2178 H   0  0  0  0  0  0  0  0  0  0  0  0
   59.6493   22.7064   31.5900 C   0  0  0  0  0  0  0  0  0  0  0  0
   58.9718   22.6326   32.8426 O   0  0  0  0  0  0  0  0  0  0  0  0
   59.5990   22.7551   33.5709 H   0  0  0  0  0  0  0  0  0  0  0  0
 15 16  1  0  0  0
 15 11  1  0  0  0
 10 11  1  0  0  0
 10 12  1  0  0  0
 10 13  1  0  0  0
 10 14  1  0  0  0
 16 17  1  0  0  0
 11  1  1  0  0  0
  1  2  1  0  0  0
  2  5  2  0  0  0
  2  6  1  0  0  0
  3  4  1  0  0  0
  3  9  1  0  0  0
  4  7  2  0  0  0
  4  8  1  0  0  0
  5  7  1  0  0  0
  6  8  2  0  0  0
M  CHG 1  10   1
M  END
> <minimizedAffinity>
-6.00431

$$$$
TYE


 17 17  0  0  0  0  0  0  0  0999 V2000
   59.1055   23.7587   29.4660 C   0  0  0  0  0  0  0  0  0  0  0  0
   60.3159   23.2469   28.7087 C   0  0  0  0  0  0  0  0  0  0  0  0
   63.5930   21.9187   26.4834 O   0  0  0  0  0  0  0  0  0  0  0  0
   62.5203   22.3412   27.2052 C   0  0  0  0  0  0  0  0  0  0  0  0
   60.2914   21.9644   28.1243 C   0  0  0  0  0  0  0  0  0  0  0  0
   61.4472   24.0724   28.5486 C   0  0  0  0  0  0  0  0  0  0  0  0
   61.3915   21.5090   27.3749 C   0  0  0  0  0  0  0  0  0  0  0  0
   62.5449   23.6216   27.7953 C   0  0  0  0  0  0  0  0  0  0  0  0
   63.5059   21.0228   26.1527 H   0  0  0  0  0  0  0  0  0  0  0  0
   57.2983   23.1886   31.0373 N   0  0  0  0  0  0  0  0  0  0  0  0
   58.6094   22.7507   30.5132 C   0  0  0  0  0  0  0  0  0  0  0  0
   57.4929   24.0145   31.5949 H   0  0  0  0  0  0  0  0  0  0  0  0
   56.8934   22.4952   31.6452 H   0  0  0  0  0  0  0  0  0  0  0  0
   56.6841   23.4217   30.2653 H   0  0  0  0  0  0  0  0  0  0  0  0
   59.6215   22.6328   31.6721 C   0  0  0  0  0  0  0  0  0  0  0  0
   58.9098   22.6258   32.9078 O   0  0  0  0  0  0  0  0  0  0  0  0
   59.5299   22.6499   33.6520 H   0  0  0  0  0  0  0  0  0  0  0  0
 15 16  1  0  0  0
 15 11  1  0  0  0
 10 11  1  0  0  0
 10 12  1  0  0  0
 10 13  1  0  0  0
 10 14  1  0  0  0
 16 17  1  0  0  0
 11  1  1  0  0  0
  1  2  1  0  0  0
  2  5  2  0  0  0
  2  6  1  0  0  0
  3  4  1  0  0  0
  3  9  1  0  0  0
  4  7  2  0  0  0
  4  8  1  0  0  0
  5  7  1  0  0  0
  6  8  2  0  0  0
M  CHG 1  10   1
M  END
> <minimizedAffinity>
-5.99701

$$$$
TYE


 17 17  0  0  0  0  0  0  0  0999 V2000
   61.7328   20.1315   26.5261 C   0  0  0  0  0  0  0  0  0  0  0  0
   61.6309   21.4408   27.2850 C   0  0  0  0  0  0  0  0  0  0  0  0
   61.4511   24.9806   29.4969 O   0  0  0  0  0  0  0  0  0  0  0  0
   61.4998   23.8245   28.7822 C   0  0  0  0  0  0  0  0  0  0  0  0
   60.5379   21.6746   28.1439 C   0  0  0  0  0  0  0  0  0  0  0  0
   62.6535   22.4038   27.1684 C   0  0  0  0  0  0  0  0  0  0  0  0
   60.4690   22.8647   28.8909 C   0  0  0  0  0  0  0  0  0  0  0  0
   62.5895   23.5910   27.9182 C   0  0  0  0  0  0  0  0  0  0  0  0
   60.6572   25.0726   30.0269 H   0  0  0  0  0  0  0  0  0  0  0  0
   63.2388   18.3229   25.8045 N   0  0  0  0  0  0  0  0  0  0  0  0
   63.0649   19.4133   26.7875 C   0  0  0  0  0  0  0  0  0  0  0  0
   62.5511   17.6199   26.0568 H   0  0  0  0  0  0  0  0  0  0  0  0
   64.1507   17.9018   25.8777 H   0  0  0  0  0  0  0  0  0  0  0  0
   63.0569   18.6743   24.8712 H   0  0  0  0  0  0  0  0  0  0  0  0
   63.0960   18.8357   28.2182 C   0  0  0  0  0  0  0  0  0  0  0  0
   64.2420   19.3449   28.8969 O   0  0  0  0  0  0  0  0  0  0  0  0
   64.3346   18.9208   29.7632 H   0  0  0  0  0  0  0  0  0  0  0  0
 15 16  1  0  0  0
 15 11  1  0  0  0
 10 11  1  0  0  0
 10 12  1  0  0  0
 10 13  1  0  0  0
 10 14  1  0  0  0
 16 17  1  0  0  0
 11  1  1  0  0  0
  1  2  1  0  0  0
  2  5  2  0  0  0
  2  6  1  0  0  0
  3  4  1  0  0  0
  3  9  1  0  0  0
  4  7  2  0  0  0
  4  8  1  0  0  0
  5  7  1  0  0  0
  6  8  2  0  0  0
M  CHG 1  10   1
M  END
> <minimizedAffinity>
-5.95003

$$$$
TYE


 17 17  0  0  0  0  0  0  0  0999 V2000
   61.6950   20.1836   26.5454 C   0  0  0  0  0  0  0  0  0  0  0  0
   61.6487   21.4540   27.3728 C   0  0  0  0  0  0  0  0  0  0  0  0
   61.4151   25.0207   29.5359 O   0  0  0  0  0  0  0  0  0  0  0  0
   61.5008   23.8637   28.8261 C   0  0  0  0  0  0  0  0  0  0  0  0
   62.6478   22.4356   27.2138 C   0  0  0  0  0  0  0  0  0  0  0  0
   60.5808   21.6742   28.2659 C   0  0  0  0  0  0  0  0  0  0  0  0
   62.5774   23.6386   27.9397 C   0  0  0  0  0  0  0  0  0  0  0  0
   60.5054   22.8780   28.9878 C   0  0  0  0  0  0  0  0  0  0  0  0
   62.1537   25.6155   29.3933 H   0  0  0  0  0  0  0  0  0  0  0  0
   63.0810   18.3017   25.7727 N   0  0  0  0  0  0  0  0  0  0  0  0
   63.0019   19.4044   26.7541 C   0  0  0  0  0  0  0  0  0  0  0  0
   62.3726   17.6335   26.0599 H   0  0  0  0  0  0  0  0  0  0  0  0
   63.9744   17.8382   25.8094 H   0  0  0  0  0  0  0  0  0  0  0  0
   62.8752   18.6562   24.8456 H   0  0  0  0  0  0  0  0  0  0  0  0
   63.0682   18.8337   28.1864 C   0  0  0  0  0  0  0  0  0  0  0  0
   64.2392   19.3332   28.8287 O   0  0  0  0  0  0  0  0  0  0  0  0
   64.3522   18.9125   29.6942 H   0  0  0  0  0  0  0  0  0  0  0  0
 15 16  1  0  0  0
 15 11  1  0  0  0
 10 11  1  0  0  0
 10 12  1  0  0  0
 10 13  1  0  0  0
 10 14  1  0  0  0
 16 17  1  0  0  0
 11  1  1  0  0  0
  1  2  1  0  0  0
  2  5  2  0  0  0
  2  6  1  0  0  0
  3  4  1  0  0  0
  3  9  1  0  0  0
  4  7  2  0  0  0
  4  8  1  0  0  0
  5  7  1  0  0  0
  6  8  2  0  0  0
M  CHG 1  10   1
M  END
> <minimizedAffinity>
-5.91430

$$$$
TYE


 17 17  0  0  0  0  0  0  0  0999 V2000
   78.2288    4.3175   28.1093 C   0  0  0  0  0  0  0  0  0  0  0  0
   78.1242    3.4571   29.3540 C   0  0  0  0  0  0  0  0  0  0  0  0
   77.9552    0.9835   32.7168 O   0  0  0  0  0  0  0  0  0  0  0  0
   78.0014    1.7827   31.6171 C   0  0  0  0  0  0  0  0  0  0  0  0
   77.1284    2.4633   29.4424 C   0  0  0  0  0  0  0  0  0  0  0  0
   79.0525    3.6191   30.4022 C   0  0  0  0  0  0  0  0  0  0  0  0
   77.0637    1.6273   30.5721 C   0  0  0  0  0  0  0  0  0  0  0  0
   78.9932    2.7812   31.5292 C   0  0  0  0  0  0  0  0  0  0  0  0
   77.2263    0.3604   32.7096 H   0  0  0  0  0  0  0  0  0  0  0  0
   76.7159    5.5148   26.5805 N   0  0  0  0  0  0  0  0  0  0  0  0
   77.0729    5.3231   28.0022 C   0  0  0  0  0  0  0  0  0  0  0  0
   77.4946    6.0231   26.1729 H   0  0  0  0  0  0  0  0  0  0  0  0
   75.8908    6.0835   26.4805 H   0  0  0  0  0  0  0  0  0  0  0  0
   76.6112    4.6120   26.1314 H   0  0  0  0  0  0  0  0  0  0  0  0
   77.4740    6.6763   28.6263 C   0  0  0  0  0  0  0  0  0  0  0  0
   76.3391    7.2362   29.2834 O   0  0  0  0  0  0  0  0  0  0  0  0
   76.5414    8.1296   29.5993 H   0  0  0  0  0  0  0  0  0  0  0  0
 15 16  1  0  0  0
 15 11  1  0  0  0
 10 11  1  0  0  0
 10 12  1  0  0  0
 10 13  1  0  0  0
 10 14  1  0  0  0
 16 17  1  0  0  0
 11  1  1  0  0  0
  1  2  1  0  0  0
  2  5  2  0  0  0
  2  6  1  0  0  0
  3  4  1  0  0  0
  3  9  1  0  0  0
  4  7  2  0  0  0
  4  8  1  0  0  0
  5  7  1  0  0  0
  6  8  2  0  0  0
M  CHG 1  10   1
M  END
> <minimizedAffinity>
-5.77444

$$$$
TYE


 17 17  0  0  0  0  0  0  0  0999 V2000
   77.2735    4.2835   28.4354 C   0  0  0  0  0  0  0  0  0  0  0  0
   77.5348    3.3216   29.5786 C   0  0  0  0  0  0  0  0  0  0  0  0
   78.1208    0.7394   32.8104 O   0  0  0  0  0  0  0  0  0  0  0  0
   77.9376    1.5877   31.7631 C   0  0  0  0  0  0  0  0  0  0  0  0
   78.4775    3.6492   30.5741 C   0  0  0  0  0  0  0  0  0  0  0  0
   76.8005    2.1220   29.6714 C   0  0  0  0  0  0  0  0  0  0  0  0
   78.6820    2.7842   31.6647 C   0  0  0  0  0  0  0  0  0  0  0  0
   76.9991    1.2593   30.7632 C   0  0  0  0  0  0  0  0  0  0  0  0
   78.8046    1.0225   33.4202 H   0  0  0  0  0  0  0  0  0  0  0  0
   76.8269    6.6047   29.1227 N   0  0  0  0  0  0  0  0  0  0  0  0
   77.8866    5.6680   28.6926 C   0  0  0  0  0  0  0  0  0  0  0  0
   76.2549    6.7617   28.2988 H   0  0  0  0  0  0  0  0  0  0  0  0
   77.2108    7.4921   29.4047 H   0  0  0  0  0  0  0  0  0  0  0  0
   76.2749    6.1789   29.8586 H   0  0  0  0  0  0  0  0  0  0  0  0
   78.5687    6.2027   27.4158 C   0  0  0  0  0  0  0  0  0  0  0  0
   78.9630    5.0976   26.6054 O   0  0  0  0  0  0  0  0  0  0  0  0
   79.4788    5.4061   25.8454 H   0  0  0  0  0  0  0  0  0  0  0  0
 15 16  1  0  0  0
 15 11  1  0  0  0
 10 11  1  0  0  0
 10 12  1  0  0  0
 10 13  1  0  0  0
 10 14  1  0  0  0
 16 17  1  0  0  0
 11  1  1  0  0  0
  1  2  1  0  0  0
  2  5  2  0  0  0
  2  6  1  0  0  0
  3  4  1  0  0  0
  3  9  1  0  0  0
  4  7  2  0  0  0
  4  8  1  0  0  0
  5  7  1  0  0  0
  6  8  2  0  0  0
M  CHG 1  10   1
M  END
> <minimizedAffinity>
-5.75593

$$$$
TYE


 17 17  0  0  0  0  0  0  0  0999 V2000
   77.3339    4.2765   28.4518 C   0  0  0  0  0  0  0  0  0  0  0  0
   77.5317    3.3412   29.6294 C   0  0  0  0  0  0  0  0  0  0  0  0
   78.2090    0.6949   32.7906 O   0  0  0  0  0  0  0  0  0  0  0  0
   77.9808    1.5487   31.7568 C   0  0  0  0  0  0  0  0  0  0  0  0
   76.7894    2.1458   29.7126 C   0  0  0  0  0  0  0  0  0  0  0  0
   78.4919    3.6441   30.6157 C   0  0  0  0  0  0  0  0  0  0  0  0
   77.0103    1.2501   30.7748 C   0  0  0  0  0  0  0  0  0  0  0  0
   78.7183    2.7479   31.6747 C   0  0  0  0  0  0  0  0  0  0  0  0
   77.6364   -0.0744   32.7883 H   0  0  0  0  0  0  0  0  0  0  0  0
   76.8238    6.5955   29.1012 N   0  0  0  0  0  0  0  0  0  0  0  0
   77.9140    5.6733   28.7185 C   0  0  0  0  0  0  0  0  0  0  0  0
   76.2797    6.7358   28.2556 H   0  0  0  0  0  0  0  0  0  0  0  0
   77.1822    7.4916   29.3889 H   0  0  0  0  0  0  0  0  0  0  0  0
   76.2524    6.1666   29.8204 H   0  0  0  0  0  0  0  0  0  0  0  0
   78.6333    6.2088   27.4626 C   0  0  0  0  0  0  0  0  0  0  0  0
   78.9618    5.1101   26.6150 O   0  0  0  0  0  0  0  0  0  0  0  0
   79.4989    5.4123   25.8673 H   0  0  0  0  0  0  0  0  0  0  0  0
 15 16  1  0  0  0
 15 11  1  0  0  0
 10 11  1  0  0  0
 10 12  1  0  0  0
 10 13  1  0  0  0
 10 14  1  0  0  0
 16 17  1  0  0  0
 11  1  1  0  0  0
  1  2  1  0  0  0
  2  5  2  0  0  0
  2  6  1  0  0  0
  3  4  1  0  0  0
  3  9  1  0  0  0
  4  7  2  0  0  0
  4  8  1  0  0  0
  5  7  1  0  0  0
  6  8  2  0  0  0
M  CHG 1  10   1
M  END
> <minimizedAffinity>
-5.75294

$$$$
TYE


 17 17  0  0  0  0  0  0  0  0999 V2000
   62.7409   20.8042   27.1434 C   0  0  0  0  0  0  0  0  0  0  0  0
   61.2262   20.8822   27.1296 C   0  0  0  0  0  0  0  0  0  0  0  0
   57.0506   20.9869   27.2227 O   0  0  0  0  0  0  0  0  0  0  0  0
   58.4095   20.9441   27.1843 C   0  0  0  0  0  0  0  0  0  0  0  0
   60.4859   20.0606   26.2555 C   0  0  0  0  0  0  0  0  0  0  0  0
   60.5570   21.7415   28.0244 C   0  0  0  0  0  0  0  0  0  0  0  0
   59.0796   20.0911   26.2794 C   0  0  0  0  0  0  0  0  0  0  0  0
   59.1520   21.7692   28.0539 C   0  0  0  0  0  0  0  0  0  0  0  0
   56.6291   20.4232   26.5712 H   0  0  0  0  0  0  0  0  0  0  0  0
   63.4677   19.5283   29.1191 N   0  0  0  0  0  0  0  0  0  0  0  0
   63.2458   19.4488   27.6597 C   0  0  0  0  0  0  0  0  0  0  0  0
   64.2775   20.1294   29.2365 H   0  0  0  0  0  0  0  0  0  0  0  0
   63.6942   18.6272   29.5077 H   0  0  0  0  0  0  0  0  0  0  0  0
   62.6558   19.9405   29.5646 H   0  0  0  0  0  0  0  0  0  0  0  0
   64.5603   19.0567   26.9528 C   0  0  0  0  0  0  0  0  0  0  0  0
   64.3218   18.9696   25.5496 O   0  0  0  0  0  0  0  0  0  0  0  0
   65.1084   18.6310   25.0961 H   0  0  0  0  0  0  0  0  0  0  0  0
 15 16  1  0  0  0
 15 11  1  0  0  0
 10 11  1  0  0  0
 10 12  1  0  0  0
 10 13  1  0  0  0
 10 14  1  0  0  0
 16 17  1  0  0  0
 11  1  1  0  0  0
  1  2  1  0  0  0
  2  5  2  0  0  0
  2  6  1  0  0  0
  3  4  1  0  0  0
  3  9  1  0  0  0
  4  7  2  0  0  0
  4  8  1  0  0  0
  5  7  1  0  0  0
  6  8  2  0  0  0
M  CHG 1  10   1
M  END
> <minimizedAffinity>
-5.56377

$$$$
TYE


 17 17  0  0  0  0  0  0  0  0999 V2000
   77.8601    4.8819   29.4640 C   0  0  0  0  0  0  0  0  0  0  0  0
   77.7927    3.5121   30.1119 C   0  0  0  0  0  0  0  0  0  0  0  0
   77.4704   -0.2084   31.9851 O   0  0  0  0  0  0  0  0  0  0  0  0
   77.5829    1.0063   31.3837 C   0  0  0  0  0  0  0  0  0  0  0  0
   78.5785    3.2301   31.2477 C   0  0  0  0  0  0  0  0  0  0  0  0
   76.9089    2.5370   29.6071 C   0  0  0  0  0  0  0  0  0  0  0  0
   78.4771    1.9791   31.8833 C   0  0  0  0  0  0  0  0  0  0  0  0
   76.8018    1.2886   30.2440 C   0  0  0  0  0  0  0  0  0  0  0  0
   78.0659   -0.3272   32.7273 H   0  0  0  0  0  0  0  0  0  0  0  0
   79.2706    5.5398   27.5569 N   0  0  0  0  0  0  0  0  0  0  0  0
   78.0542    4.7937   27.9431 C   0  0  0  0  0  0  0  0  0  0  0  0
   79.0428    6.5190   27.6979 H   0  0  0  0  0  0  0  0  0  0  0  0
   79.4883    5.4117   26.5819 H   0  0  0  0  0  0  0  0  0  0  0  0
   80.0412    5.2677   28.1567 H   0  0  0  0  0  0  0  0  0  0  0  0
   76.8293    5.3763   27.2071 C   0  0  0  0  0  0  0  0  0  0  0  0
   76.1788    6.3131   28.0631 O   0  0  0  0  0  0  0  0  0  0  0  0
   75.3530    6.6193   27.6590 H   0  0  0  0  0  0  0  0  0  0  0  0
 15 16  1  0  0  0
 15 11  1  0  0  0
 10 11  1  0  0  0
 10 12  1  0  0  0
 10 13  1  0  0  0
 10 14  1  0  0  0
 16 17  1  0  0  0
 11  1  1  0  0  0
  1  2  1  0  0  0
  2  5  2  0  0  0
  2  6  1  0  0  0
  3  4  1  0  0  0
  3  9  1  0  0  0
  4  7  2  0  0  0
  4  8  1  0  0  0
  5  7  1  0  0  0
  6  8  2  0  0  0
M  CHG 1  10   1
M  END
> <minimizedAffinity>
-5.51057

$$$$
TYE


 17 17  0  0  0  0  0  0  0  0999 V2000
   77.5551    3.6559   30.1380 C   0  0  0  0  0  0  0  0  0  0  0  0
   77.8165    4.1758   28.7373 C   0  0  0  0  0  0  0  0  0  0  0  0
   78.3692    5.6399   24.8636 O   0  0  0  0  0  0  0  0  0  0  0  0
   78.1882    5.1523   26.1203 C   0  0  0  0  0  0  0  0  0  0  0  0
   77.8737    3.2786   27.6516 C   0  0  0  0  0  0  0  0  0  0  0  0
   77.9546    5.5607   28.5145 C   0  0  0  0  0  0  0  0  0  0  0  0
   78.0612    3.7634   26.3443 C   0  0  0  0  0  0  0  0  0  0  0  0
   78.1362    6.0476   27.2085 C   0  0  0  0  0  0  0  0  0  0  0  0
   78.4314    4.9587   24.1915 H   0  0  0  0  0  0  0  0  0  0  0  0
   77.0592    1.3558   30.8613 N   0  0  0  0  0  0  0  0  0  0  0  0
   78.1227    2.2442   30.3466 C   0  0  0  0  0  0  0  0  0  0  0  0
   76.8817    1.6692   31.8106 H   0  0  0  0  0  0  0  0  0  0  0  0
   77.3675    0.3981   30.9058 H   0  0  0  0  0  0  0  0  0  0  0  0
   76.2252    1.4600   30.2945 H   0  0  0  0  0  0  0  0  0  0  0  0
   79.3018    2.2772   31.3417 C   0  0  0  0  0  0  0  0  0  0  0  0
   79.4476    3.6050   31.8409 O   0  0  0  0  0  0  0  0  0  0  0  0
   80.2412    3.6704   32.3930 H   0  0  0  0  0  0  0  0  0  0  0  0
 15 16  1  0  0  0
 15 11  1  0  0  0
 10 11  1  0  0  0
 10 12  1  0  0  0
 10 13  1  0  0  0
 10 14  1  0  0  0
 16 17  1  0  0  0
 11  1  1  0  0  0
  1  2  1  0  0  0
  2  5  2  0  0  0
  2  6  1  0  0  0
  3  4  1  0  0  0
  3  9  1  0  0  0
  4  7  2  0  0  0
  4  8  1  0  0  0
  5  7  1  0  0  0
  6  8  2  0  0  0
M  CHG 1  10   1
M  END
> <minimizedAffinity>
-5.46431

$$$$
TYE


 17 17  0  0  0  0  0  0  0  0999 V2000
   62.1145   21.9736   28.3063 C   0  0  0  0  0  0  0  0  0  0  0  0
   60.8763   22.6521   28.8606 C   0  0  0  0  0  0  0  0  0  0  0  0
   57.4728   24.4158   30.5221 O   0  0  0  0  0  0  0  0  0  0  0  0
   58.5739   23.8343   29.9750 C   0  0  0  0  0  0  0  0  0  0  0  0
   59.5967   22.2355   28.4412 C   0  0  0  0  0  0  0  0  0  0  0  0
   61.0039   23.6667   29.8307 C   0  0  0  0  0  0  0  0  0  0  0  0
   58.4456   22.8255   28.9946 C   0  0  0  0  0  0  0  0  0  0  0  0
   59.8551   24.2534   30.3890 C   0  0  0  0  0  0  0  0  0  0  0  0
   56.6463   24.0978   30.1541 H   0  0  0  0  0  0  0  0  0  0  0  0
   62.5933   20.4256   30.1594 N   0  0  0  0  0  0  0  0  0  0  0  0
   62.2081   20.5016   28.7342 C   0  0  0  0  0  0  0  0  0  0  0  0
   63.5607   20.7318   30.1942 H   0  0  0  0  0  0  0  0  0  0  0  0
   62.5575   19.4791   30.5015 H   0  0  0  0  0  0  0  0  0  0  0  0
   62.0072   21.0483   30.7037 H   0  0  0  0  0  0  0  0  0  0  0  0
   63.2469   19.7532   27.8725 C   0  0  0  0  0  0  0  0  0  0  0  0
   64.3252   19.3364   28.7074 O   0  0  0  0  0  0  0  0  0  0  0  0
   65.0339   18.9497   28.1717 H   0  0  0  0  0  0  0  0  0  0  0  0
 15 16  1  0  0  0
 15 11  1  0  0  0
 10 11  1  0  0  0
 10 12  1  0  0  0
 10 13  1  0  0  0
 10 14  1  0  0  0
 16 17  1  0  0  0
 11  1  1  0  0  0
  1  2  1  0  0  0
  2  5  2  0  0  0
  2  6  1  0  0  0
  3  4  1  0  0  0
  3  9  1  0  0  0
  4  7  2  0  0  0
  4  8  1  0  0  0
  5  7  1  0  0  0
  6  8  2  0  0  0
M  CHG 1  10   1
M  END
> <minimizedAffinity>
-5.45637

$$$$
TYE


 17 17  0  0  0  0  0  0  0  0999 V2000
   62.0092   22.2670   28.3955 C   0  0  0  0  0  0  0  0  0  0  0  0
   60.7153   22.7809   28.9974 C   0  0  0  0  0  0  0  0  0  0  0  0
   57.1354   24.3026   30.5219 O   0  0  0  0  0  0  0  0  0  0  0  0
   58.3068   23.8152   30.0319 C   0  0  0  0  0  0  0  0  0  0  0  0
   60.7462   23.8032   29.9675 C   0  0  0  0  0  0  0  0  0  0  0  0
   59.4795   22.2698   28.5520 C   0  0  0  0  0  0  0  0  0  0  0  0
   59.5452   24.3199   30.4870 C   0  0  0  0  0  0  0  0  0  0  0  0
   58.2784   22.7887   29.0655 C   0  0  0  0  0  0  0  0  0  0  0  0
   57.2500   24.9692   31.2017 H   0  0  0  0  0  0  0  0  0  0  0  0
   62.6736   20.3871   29.8392 N   0  0  0  0  0  0  0  0  0  0  0  0
   62.1339   20.7405   28.5090 C   0  0  0  0  0  0  0  0  0  0  0  0
   63.6421   20.6914   29.8269 H   0  0  0  0  0  0  0  0  0  0  0  0
   62.6658   19.3911   29.9880 H   0  0  0  0  0  0  0  0  0  0  0  0
   62.1581   20.8823   30.5579 H   0  0  0  0  0  0  0  0  0  0  0  0
   63.0628   20.1905   27.4063 C   0  0  0  0  0  0  0  0  0  0  0  0
   63.6671   21.2863   26.7226 O   0  0  0  0  0  0  0  0  0  0  0  0
   64.1790   20.9673   25.9642 H   0  0  0  0  0  0  0  0  0  0  0  0
 15 16  1  0  0  0
 15 11  1  0  0  0
 10 11  1  0  0  0
 10 12  1  0  0  0
 10 13  1  0  0  0
 10 14  1  0  0  0
 16 17  1  0  0  0
 11  1  1  0  0  0
  1  2  1  0  0  0
  2  5  2  0  0  0
  2  6  1  0  0  0
  3  4  1  0  0  0
  3  9  1  0  0  0
  4  7  2  0  0  0
  4  8  1  0  0  0
  5  7  1  0  0  0
  6  8  2  0  0  0
M  CHG 1  10   1
M  END
> <minimizedAffinity>
-5.45450

$$$$
TYE


 17 17  0  0  0  0  0  0  0  0999 V2000
   60.0825   23.4914   28.8096 C   0  0  0  0  0  0  0  0  0  0  0  0
   60.7930   22.4067   28.0227 C   0  0  0  0  0  0  0  0  0  0  0  0
   62.7689   19.3306   26.0007 O   0  0  0  0  0  0  0  0  0  0  0  0
   62.1360   20.3377   26.6604 C   0  0  0  0  0  0  0  0  0  0  0  0
   62.1739   22.5152   27.7612 C   0  0  0  0  0  0  0  0  0  0  0  0
   60.0824   21.2673   27.5943 C   0  0  0  0  0  0  0  0  0  0  0  0
   62.8463   21.4845   27.0794 C   0  0  0  0  0  0  0  0  0  0  0  0
   60.7535   20.2338   26.9181 C   0  0  0  0  0  0  0  0  0  0  0  0
   63.6975   19.5031   25.8345 H   0  0  0  0  0  0  0  0  0  0  0  0
   57.6475   23.4977   29.1711 N   0  0  0  0  0  0  0  0  0  0  0  0
   58.9261   22.9322   29.6516 C   0  0  0  0  0  0  0  0  0  0  0  0
   57.6678   24.4767   29.4392 H   0  0  0  0  0  0  0  0  0  0  0  0
   56.8593   23.0694   29.6289 H   0  0  0  0  0  0  0  0  0  0  0  0
   57.5945   23.4098   28.1627 H   0  0  0  0  0  0  0  0  0  0  0  0
   59.1240   23.2819   31.1416 C   0  0  0  0  0  0  0  0  0  0  0  0
   60.2567   24.1389   31.2683 O   0  0  0  0  0  0  0  0  0  0  0  0
   60.4575   24.2931   32.2036 H   0  0  0  0  0  0  0  0  0  0  0  0
 15 16  1  0  0  0
 15 11  1  0  0  0
 10 11  1  0  0  0
 10 12  1  0  0  0
 10 13  1  0  0  0
 10 14  1  0  0  0
 16 17  1  0  0  0
 11  1  1  0  0  0
  1  2  1  0  0  0
  2  5  2  0  0  0
  2  6  1  0  0  0
  3  4  1  0  0  0
  3  9  1  0  0  0
  4  7  2  0  0  0
  4  8  1  0  0  0
  5  7  1  0  0  0
  6  8  2  0  0  0
M  CHG 1  10   1
M  END
> <minimizedAffinity>
-5.45153

$$$$
TYE


 17 17  0  0  0  0  0  0  0  0999 V2000
   60.3759   23.1906   28.5294 C   0  0  0  0  0  0  0  0  0  0  0  0
   61.2947   21.9858   28.5991 C   0  0  0  0  0  0  0  0  0  0  0  0
   63.9515   18.7707   28.8428 O   0  0  0  0  0  0  0  0  0  0  0  0
   63.0894   19.8187   28.7520 C   0  0  0  0  0  0  0  0  0  0  0  0
   61.9632   21.5410   27.4405 C   0  0  0  0  0  0  0  0  0  0  0  0
   61.5172   21.3402   29.8322 C   0  0  0  0  0  0  0  0  0  0  0  0
   62.8582   20.4580   27.5137 C   0  0  0  0  0  0  0  0  0  0  0  0
   62.4153   20.2617   29.9087 C   0  0  0  0  0  0  0  0  0  0  0  0
   64.3340   18.5128   28.0020 H   0  0  0  0  0  0  0  0  0  0  0  0
   57.9298   22.9207   28.5856 N   0  0  0  0  0  0  0  0  0  0  0  0
   59.1404   23.0288   29.4271 C   0  0  0  0  0  0  0  0  0  0  0  0
   57.7968   23.8438   28.1844 H   0  0  0  0  0  0  0  0  0  0  0  0
   57.1151   22.7042   29.1367 H   0  0  0  0  0  0  0  0  0  0  0  0
   58.0848   22.2375   27.8529 H   0  0  0  0  0  0  0  0  0  0  0  0
   59.0053   24.2326   30.3831 C   0  0  0  0  0  0  0  0  0  0  0  0
   60.2361   24.4079   31.0816 O   0  0  0  0  0  0  0  0  0  0  0  0
   60.1434   25.0968   31.7567 H   0  0  0  0  0  0  0  0  0  0  0  0
 15 16  1  0  0  0
 15 11  1  0  0  0
 10 11  1  0  0  0
 10 12  1  0  0  0
 10 13  1  0  0  0
 10 14  1  0  0  0
 16 17  1  0  0  0
 11  1  1  0  0  0
  1  2  1  0  0  0
  2  5  2  0  0  0
  2  6  1  0  0  0
  3  4  1  0  0  0
  3  9  1  0  0  0
  4  7  2  0  0  0
  4  8  1  0  0  0
  5  7  1  0  0  0
  6  8  2  0  0  0
M  CHG 1  10   1
M  END
> <minimizedAffinity>
-5.44325

$$$$
TYE


 17 17  0  0  0  0  0  0  0  0999 V2000
   60.5169   22.4761   28.3466 C   0  0  0  0  0  0  0  0  0  0  0  0
   60.3955   21.2390   27.4773 C   0  0  0  0  0  0  0  0  0  0  0  0
   60.0179   17.7422   25.2224 O   0  0  0  0  0  0  0  0  0  0  0  0
   60.1524   18.8783   25.9579 C   0  0  0  0  0  0  0  0  0  0  0  0
   61.5391   20.4692   27.1831 C   0  0  0  0  0  0  0  0  0  0  0  0
   59.1318   20.8326   27.0034 C   0  0  0  0  0  0  0  0  0  0  0  0
   61.4207   19.2912   26.4230 C   0  0  0  0  0  0  0  0  0  0  0  0
   59.0105   19.6530   26.2487 C   0  0  0  0  0  0  0  0  0  0  0  0
   60.8495   17.3008   25.0401 H   0  0  0  0  0  0  0  0  0  0  0  0
   61.9790   23.4248   30.0849 N   0  0  0  0  0  0  0  0  0  0  0  0
   61.9679   22.7434   28.7730 C   0  0  0  0  0  0  0  0  0  0  0  0
   61.6214   24.3582   29.9072 H   0  0  0  0  0  0  0  0  0  0  0  0
   62.9150   23.5171   30.4450 H   0  0  0  0  0  0  0  0  0  0  0  0
   61.3714   22.9318   30.7293 H   0  0  0  0  0  0  0  0  0  0  0  0
   62.6870   23.6183   27.7248 C   0  0  0  0  0  0  0  0  0  0  0  0
   61.8446   24.7175   27.3845 O   0  0  0  0  0  0  0  0  0  0  0  0
   62.2344   25.2263   26.6578 H   0  0  0  0  0  0  0  0  0  0  0  0
 15 16  1  0  0  0
 15 11  1  0  0  0
 10 11  1  0  0  0
 10 12  1  0  0  0
 10 13  1  0  0  0
 10 14  1  0  0  0
 16 17  1  0  0  0
 11  1  1  0  0  0
  1  2  1  0  0  0
  2  5  2  0  0  0
  2  6  1  0  0  0
  3  4  1  0  0  0
  3  9  1  0  0  0
  4  7  2  0  0  0
  4  8  1  0  0  0
  5  7  1  0  0  0
  6  8  2  0  0  0
M  CHG 1  10   1
M  END
> <minimizedAffinity>
-5.44137

$$$$
TYE


 17 17  0  0  0  0  0  0  0  0999 V2000
   62.7589   21.2416   27.1855 C   0  0  0  0  0  0  0  0  0  0  0  0
   61.4201   21.7305   27.7044 C   0  0  0  0  0  0  0  0  0  0  0  0
   57.7019   23.1461   28.9798 O   0  0  0  0  0  0  0  0  0  0  0  0
   58.9174   22.6952   28.5686 C   0  0  0  0  0  0  0  0  0  0  0  0
   61.3391   22.9496   28.4075 C   0  0  0  0  0  0  0  0  0  0  0  0
   60.2500   20.9897   27.4419 C   0  0  0  0  0  0  0  0  0  0  0  0
   60.0910   23.4324   28.8419 C   0  0  0  0  0  0  0  0  0  0  0  0
   59.0015   21.4732   27.8699 C   0  0  0  0  0  0  0  0  0  0  0  0
   57.7434   23.9631   29.4803 H   0  0  0  0  0  0  0  0  0  0  0  0
   63.2359   19.7453   29.0811 N   0  0  0  0  0  0  0  0  0  0  0  0
   63.0532   19.7968   27.6150 C   0  0  0  0  0  0  0  0  0  0  0  0
   64.1170   20.2168   29.2599 H   0  0  0  0  0  0  0  0  0  0  0  0
   63.3219   18.7970   29.4093 H   0  0  0  0  0  0  0  0  0  0  0  0
   62.4749   20.2367   29.5360 H   0  0  0  0  0  0  0  0  0  0  0  0
   64.3230   19.2720   26.9124 C   0  0  0  0  0  0  0  0  0  0  0  0
   63.9869   18.8808   25.5829 O   0  0  0  0  0  0  0  0  0  0  0  0
   64.7470   18.4587   25.1553 H   0  0  0  0  0  0  0  0  0  0  0  0
 15 16  1  0  0  0
 15 11  1  0  0  0
 10 11  1  0  0  0
 10 12  1  0  0  0
 10 13  1  0  0  0
 10 14  1  0  0  0
 16 17  1  0  0  0
 11  1  1  0  0  0
  1  2  1  0  0  0
  2  5  2  0  0  0
  2  6  1  0  0  0
  3  4  1  0  0  0
  3  9  1  0  0  0
  4  7  2  0  0  0
  4  8  1  0  0  0
  5  7  1  0  0  0
  6  8  2  0  0  0
M  CHG 1  10   1
M  END
> <minimizedAffinity>
-5.40049

$$$$
TYE


 17 17  0  0  0  0  0  0  0  0999 V2000
   60.2746   22.4824   28.4439 C   0  0  0  0  0  0  0  0  0  0  0  0
   60.1937   21.2227   27.6030 C   0  0  0  0  0  0  0  0  0  0  0  0
   60.0229   17.8438   25.1516 O   0  0  0  0  0  0  0  0  0  0  0  0
   60.0670   18.9459   25.9474 C   0  0  0  0  0  0  0  0  0  0  0  0
   58.9657   20.8360   27.0288 C   0  0  0  0  0  0  0  0  0  0  0  0
   61.3562   20.4647   27.3563 C   0  0  0  0  0  0  0  0  0  0  0  0
   58.8994   19.6986   26.2035 C   0  0  0  0  0  0  0  0  0  0  0  0
   61.2933   19.3313   26.5274 C   0  0  0  0  0  0  0  0  0  0  0  0
   59.1430   17.6340   24.8330 H   0  0  0  0  0  0  0  0  0  0  0  0
   61.7916   23.5252   30.0783 N   0  0  0  0  0  0  0  0  0  0  0  0
   61.7257   22.8825   28.7486 C   0  0  0  0  0  0  0  0  0  0  0  0
   61.3296   24.4224   29.9675 H   0  0  0  0  0  0  0  0  0  0  0  0
   62.7434   23.7012   30.3565 H   0  0  0  0  0  0  0  0  0  0  0  0
   61.2972   22.9560   30.7559 H   0  0  0  0  0  0  0  0  0  0  0  0
   62.2559   23.8538   27.6730 C   0  0  0  0  0  0  0  0  0  0  0  0
   63.4617   23.3240   27.1264 O   0  0  0  0  0  0  0  0  0  0  0  0
   63.8635   23.9628   26.5186 H   0  0  0  0  0  0  0  0  0  0  0  0
 15 16  1  0  0  0
 15 11  1  0  0  0
 10 11  1  0  0  0
 10 12  1  0  0  0
 10 13  1  0  0  0
 10 14  1  0  0  0
 16 17  1  0  0  0
 11  1  1  0  0  0
  1  2  1  0  0  0
  2  5  2  0  0  0
  2  6  1  0  0  0
  3  4  1  0  0  0
  3  9  1  0  0  0
  4  7  2  0  0  0
  4  8  1  0  0  0
  5  7  1  0  0  0
  6  8  2  0  0  0
M  CHG 1  10   1
M  END
> <minimizedAffinity>
-5.39141

$$$$
TYE


 17 17  0  0  0  0  0  0  0  0999 V2000
   72.3571   21.9259   10.9738 C   0  0  0  0  0  0  0  0  0  0  0  0
   71.5422   22.8655   10.1056 C   0  0  0  0  0  0  0  0  0  0  0  0
   69.4045   25.5800    7.7569 O   0  0  0  0  0  0  0  0  0  0  0  0
   70.0932   24.6986    8.5306 C   0  0  0  0  0  0  0  0  0  0  0  0
   70.3913   23.4889   10.6289 C   0  0  0  0  0  0  0  0  0  0  0  0
   71.9626   23.1522    8.7911 C   0  0  0  0  0  0  0  0  0  0  0  0
   69.6650   24.4030    9.8439 C   0  0  0  0  0  0  0  0  0  0  0  0
   71.2416   24.0695    8.0072 C   0  0  0  0  0  0  0  0  0  0  0  0
   68.6170   25.9290    8.1785 H   0  0  0  0  0  0  0  0  0  0  0  0
   74.7159   22.2743   11.5856 N   0  0  0  0  0  0  0  0  0  0  0  0
   73.3285   22.6826   11.8917 C   0  0  0  0  0  0  0  0  0  0  0  0
   74.7946   21.3173   11.9152 H   0  0  0  0  0  0  0  0  0  0  0  0
   75.3849   22.8306   12.0928 H   0  0  0  0  0  0  0  0  0  0  0  0
   74.8695   22.3155   10.5844 H   0  0  0  0  0  0  0  0  0  0  0  0
   73.0129   22.3878   13.3732 C   0  0  0  0  0  0  0  0  0  0  0  0
   71.9501   23.2388   13.7971 O   0  0  0  0  0  0  0  0  0  0  0  0
   71.8002   23.1393   14.7493 H   0  0  0  0  0  0  0  0  0  0  0  0
 15 16  1  0  0  0
 15 11  1  0  0  0
 10 11  1  0  0  0
 10 12  1  0  0  0
 10 13  1  0  0  0
 10 14  1  0  0  0
 16 17  1  0  0  0
 11  1  1  0  0  0
  1  2  1  0  0  0
  2  5  2  0  0  0
  2  6  1  0  0  0
  3  4  1  0  0  0
  3  9  1  0  0  0
  4  7  2  0  0  0
  4  8  1  0  0  0
  5  7  1  0  0  0
  6  8  2  0  0  0
M  CHG 1  10   1
M  END
> <minimizedAffinity>
-5.32540

$$$$
TYE


 17 17  0  0  0  0  0  0  0  0999 V2000
   60.2311   22.6501   28.3711 C   0  0  0  0  0  0  0  0  0  0  0  0
   60.1619   21.3669   27.5653 C   0  0  0  0  0  0  0  0  0  0  0  0
   59.9993   17.9240   25.2041 O   0  0  0  0  0  0  0  0  0  0  0  0
   60.0404   19.0459   25.9719 C   0  0  0  0  0  0  0  0  0  0  0  0
   58.9134   20.8641   27.1461 C   0  0  0  0  0  0  0  0  0  0  0  0
   61.3488   20.7030   27.1950 C   0  0  0  0  0  0  0  0  0  0  0  0
   58.8500   19.7044   26.3522 C   0  0  0  0  0  0  0  0  0  0  0  0
   61.2879   19.5474   26.3970 C   0  0  0  0  0  0  0  0  0  0  0  0
   59.1097   17.6331   24.9948 H   0  0  0  0  0  0  0  0  0  0  0  0
   58.2780   23.6038   29.5266 N   0  0  0  0  0  0  0  0  0  0  0  0
   59.3510   22.5920   29.6283 C   0  0  0  0  0  0  0  0  0  0  0  0
   58.7436   24.5012   29.6195 H   0  0  0  0  0  0  0  0  0  0  0  0
   57.6182   23.5196   30.2829 H   0  0  0  0  0  0  0  0  0  0  0  0
   57.8282   23.5327   28.6210 H   0  0  0  0  0  0  0  0  0  0  0  0
   60.1964   22.8535   30.8926 C   0  0  0  0  0  0  0  0  0  0  0  0
   60.2113   24.2549   31.1563 O   0  0  0  0  0  0  0  0  0  0  0  0
   60.8147   24.4518   31.8884 H   0  0  0  0  0  0  0  0  0  0  0  0
 15 16  1  0  0  0
 15 11  1  0  0  0
 10 11  1  0  0  0
 10 12  1  0  0  0
 10 13  1  0  0  0
 10 14  1  0  0  0
 16 17  1  0  0  0
 11  1  1  0  0  0
  1  2  1  0  0  0
  2  5  2  0  0  0
  2  6  1  0  0  0
  3  4  1  0  0  0
  3  9  1  0  0  0
  4  7  2  0  0  0
  4  8  1  0  0  0
  5  7  1  0  0  0
  6  8  2  0  0  0
M  CHG 1  10   1
M  END
> <minimizedAffinity>
-5.27176

$$$$
TYE


 17 17  0  0  0  0  0  0  0  0999 V2000
   58.3115   33.3503   36.9470 C   0  0  0  0  0  0  0  0  0  0  0  0
   58.9936   32.0252   36.6650 C   0  0  0  0  0  0  0  0  0  0  0  0
   60.7366   28.2952   35.9552 O   0  0  0  0  0  0  0  0  0  0  0  0
   60.1748   29.5100   36.1968 C   0  0  0  0  0  0  0  0  0  0  0  0
   59.9193   31.4983   37.5883 C   0  0  0  0  0  0  0  0  0  0  0  0
   58.6661   31.2978   35.5030 C   0  0  0  0  0  0  0  0  0  0  0  0
   60.5120   30.2437   37.3559 C   0  0  0  0  0  0  0  0  0  0  0  0
   59.2526   30.0415   35.2717 C   0  0  0  0  0  0  0  0  0  0  0  0
   61.3800   28.0304   36.6153 H   0  0  0  0  0  0  0  0  0  0  0  0
   56.2380   34.4803   37.6421 N   0  0  0  0  0  0  0  0  0  0  0  0
   56.8139   33.1792   37.2410 C   0  0  0  0  0  0  0  0  0  0  0  0
   56.6262   34.6760   38.5595 H   0  0  0  0  0  0  0  0  0  0  0  0
   55.2367   34.4275   37.7363 H   0  0  0  0  0  0  0  0  0  0  0  0
   56.5197   35.1951   36.9808 H   0  0  0  0  0  0  0  0  0  0  0  0
   56.5985   32.1446   38.3657 C   0  0  0  0  0  0  0  0  0  0  0  0
   55.4199   31.3935   38.0826 O   0  0  0  0  0  0  0  0  0  0  0  0
   55.2118   30.8043   38.8232 H   0  0  0  0  0  0  0  0  0  0  0  0
 15 16  1  0  0  0
 15 11  1  0  0  0
 10 11  1  0  0  0
 10 12  1  0  0  0
 10 13  1  0  0  0
 10 14  1  0  0  0
 16 17  1  0  0  0
 11  1  1  0  0  0
  1  2  1  0  0  0
  2  5  2  0  0  0
  2  6  1  0  0  0
  3  4  1  0  0  0
  3  9  1  0  0  0
  4  7  2  0  0  0
  4  8  1  0  0  0
  5  7  1  0  0  0
  6  8  2  0  0  0
M  CHG 1  10   1
M  END
> <minimizedAffinity>
-5.26645

$$$$
TYE


 17 17  0  0  0  0  0  0  0  0999 V2000
   58.3147   33.2684   36.9240 C   0  0  0  0  0  0  0  0  0  0  0  0
   58.9616   31.9116   36.7206 C   0  0  0  0  0  0  0  0  0  0  0  0
   60.8828   28.2538   36.1008 O   0  0  0  0  0  0  0  0  0  0  0  0
   60.2525   29.4438   36.2918 C   0  0  0  0  0  0  0  0  0  0  0  0
   58.7162   31.1837   35.5387 C   0  0  0  0  0  0  0  0  0  0  0  0
   59.8457   31.4002   37.6920 C   0  0  0  0  0  0  0  0  0  0  0  0
   59.3579   29.9504   35.3231 C   0  0  0  0  0  0  0  0  0  0  0  0
   60.4923   30.1710   37.4759 C   0  0  0  0  0  0  0  0  0  0  0  0
   60.6311   27.8107   35.2884 H   0  0  0  0  0  0  0  0  0  0  0  0
   56.2909   34.4808   37.6269 N   0  0  0  0  0  0  0  0  0  0  0  0
   56.8173   33.1532   37.2450 C   0  0  0  0  0  0  0  0  0  0  0  0
   56.7003   34.6827   38.5337 H   0  0  0  0  0  0  0  0  0  0  0  0
   55.2901   34.4631   37.7379 H   0  0  0  0  0  0  0  0  0  0  0  0
   56.5851   35.1718   36.9461 H   0  0  0  0  0  0  0  0  0  0  0  0
   56.5865   32.1502   38.3949 C   0  0  0  0  0  0  0  0  0  0  0  0
   55.4485   31.3480   38.0865 O   0  0  0  0  0  0  0  0  0  0  0  0
   55.2273   30.7771   38.8375 H   0  0  0  0  0  0  0  0  0  0  0  0
 15 16  1  0  0  0
 15 11  1  0  0  0
 10 11  1  0  0  0
 10 12  1  0  0  0
 10 13  1  0  0  0
 10 14  1  0  0  0
 16 17  1  0  0  0
 11  1  1  0  0  0
  1  2  1  0  0  0
  2  5  2  0  0  0
  2  6  1  0  0  0
  3  4  1  0  0  0
  3  9  1  0  0  0
  4  7  2  0  0  0
  4  8  1  0  0  0
  5  7  1  0  0  0
  6  8  2  0  0  0
M  CHG 1  10   1
M  END
> <minimizedAffinity>
-5.22124

$$$$
TYE


 17 17  0  0  0  0  0  0  0  0999 V2000
   58.9842   19.3808   26.4735 C   0  0  0  0  0  0  0  0  0  0  0  0
   60.0035   20.4287   26.8779 C   0  0  0  0  0  0  0  0  0  0  0  0
   62.8630   23.2111   28.1174 O   0  0  0  0  0  0  0  0  0  0  0  0
   61.9241   22.3106   27.7208 C   0  0  0  0  0  0  0  0  0  0  0  0
   59.6284   21.4831   27.7349 C   0  0  0  0  0  0  0  0  0  0  0  0
   61.3374   20.3214   26.4352 C   0  0  0  0  0  0  0  0  0  0  0  0
   60.5849   22.4251   28.1556 C   0  0  0  0  0  0  0  0  0  0  0  0
   62.2958   21.2582   26.8590 C   0  0  0  0  0  0  0  0  0  0  0  0
   62.5141   23.9134   28.6694 H   0  0  0  0  0  0  0  0  0  0  0  0
   59.7157   17.1603   25.7026 N   0  0  0  0  0  0  0  0  0  0  0  0
   59.4062   17.9676   26.9018 C   0  0  0  0  0  0  0  0  0  0  0  0
   58.8225   16.9999   25.2474 H   0  0  0  0  0  0  0  0  0  0  0  0
   60.1003   16.2632   25.9507 H   0  0  0  0  0  0  0  0  0  0  0  0
   60.3335   17.6822   25.0915 H   0  0  0  0  0  0  0  0  0  0  0  0
   58.2807   17.2893   27.7109 C   0  0  0  0  0  0  0  0  0  0  0  0
   58.0727   15.9743   27.2000 O   0  0  0  0  0  0  0  0  0  0  0  0
   57.3061   15.5653   27.6289 H   0  0  0  0  0  0  0  0  0  0  0  0
 15 16  1  0  0  0
 15 11  1  0  0  0
 10 11  1  0  0  0
 10 12  1  0  0  0
 10 13  1  0  0  0
 10 14  1  0  0  0
 16 17  1  0  0  0
 11  1  1  0  0  0
  1  2  1  0  0  0
  2  5  2  0  0  0
  2  6  1  0  0  0
  3  4  1  0  0  0
  3  9  1  0  0  0
  4  7  2  0  0  0
  4  8  1  0  0  0
  5  7  1  0  0  0
  6  8  2  0  0  0
M  CHG 1  10   1
M  END
> <minimizedAffinity>
-5.21166

$$$$
TYE


 17 17  0  0  0  0  0  0  0  0999 V2000
   64.3729   15.0273   27.2435 C   0  0  0  0  0  0  0  0  0  0  0  0
   63.2516   14.0256   27.4430 C   0  0  0  0  0  0  0  0  0  0  0  0
   60.0782   11.3844   28.0826 O   0  0  0  0  0  0  0  0  0  0  0  0
   61.1167   12.2400   27.8840 C   0  0  0  0  0  0  0  0  0  0  0  0
   63.3203   13.0911   28.4962 C   0  0  0  0  0  0  0  0  0  0  0  0
   62.1189   14.0602   26.6049 C   0  0  0  0  0  0  0  0  0  0  0  0
   62.2567   12.1972   28.7172 C   0  0  0  0  0  0  0  0  0  0  0  0
   61.0526   13.1719   26.8276 C   0  0  0  0  0  0  0  0  0  0  0  0
   60.2241   10.7610   28.7966 H   0  0  0  0  0  0  0  0  0  0  0  0
   66.6670   14.1362   27.1923 N   0  0  0  0  0  0  0  0  0  0  0  0
   65.4952   14.4703   26.3553 C   0  0  0  0  0  0  0  0  0  0  0  0
   67.0437   15.0282   27.4976 H   0  0  0  0  0  0  0  0  0  0  0  0
   67.3805   13.6672   26.6582 H   0  0  0  0  0  0  0  0  0  0  0  0
   66.3690   13.5879   27.9912 H   0  0  0  0  0  0  0  0  0  0  0  0
   65.8983   15.5034   25.2821 C   0  0  0  0  0  0  0  0  0  0  0  0
   67.0647   16.1956   25.7226 O   0  0  0  0  0  0  0  0  0  0  0  0
   67.2794   16.9146   25.1096 H   0  0  0  0  0  0  0  0  0  0  0  0
 15 16  1  0  0  0
 15 11  1  0  0  0
 10 11  1  0  0  0
 10 12  1  0  0  0
 10 13  1  0  0  0
 10 14  1  0  0  0
 16 17  1  0  0  0
 11  1  1  0  0  0
  1  2  1  0  0  0
  2  5  2  0  0  0
  2  6  1  0  0  0
  3  4  1  0  0  0
  3  9  1  0  0  0
  4  7  2  0  0  0
  4  8  1  0  0  0
  5  7  1  0  0  0
  6  8  2  0  0  0
M  CHG 1  10   1
M  END
> <minimizedAffinity>
-5.16023

$$$$
TYE


 17 17  0  0  0  0  0  0  0  0999 V2000
   59.4539   15.6487   26.7687 C   0  0  0  0  0  0  0  0  0  0  0  0
   60.0305   17.0459   26.6425 C   0  0  0  0  0  0  0  0  0  0  0  0
   61.5626   20.8993   26.1333 O   0  0  0  0  0  0  0  0  0  0  0  0
   61.0743   19.6404   26.2959 C   0  0  0  0  0  0  0  0  0  0  0  0
   61.3886   17.2204   26.3073 C   0  0  0  0  0  0  0  0  0  0  0  0
   59.1972   18.1698   26.8133 C   0  0  0  0  0  0  0  0  0  0  0  0
   61.9127   18.5147   26.1357 C   0  0  0  0  0  0  0  0  0  0  0  0
   59.7174   19.4636   26.6366 C   0  0  0  0  0  0  0  0  0  0  0  0
   62.5019   20.9263   25.9417 H   0  0  0  0  0  0  0  0  0  0  0  0
   58.9429   14.0968   24.9275 N   0  0  0  0  0  0  0  0  0  0  0  0
   60.0392   14.6849   25.7260 C   0  0  0  0  0  0  0  0  0  0  0  0
   58.4527   13.4725   25.5605 H   0  0  0  0  0  0  0  0  0  0  0  0
   59.2977   13.5445   24.1637 H   0  0  0  0  0  0  0  0  0  0  0  0
   58.3227   14.8322   24.6079 H   0  0  0  0  0  0  0  0  0  0  0  0
   60.8409   13.5622   26.4177 C   0  0  0  0  0  0  0  0  0  0  0  0
   62.2329   13.7984   26.2177 O   0  0  0  0  0  0  0  0  0  0  0  0
   62.7517   13.0551   26.5601 H   0  0  0  0  0  0  0  0  0  0  0  0
 15 16  1  0  0  0
 15 11  1  0  0  0
 10 11  1  0  0  0
 10 12  1  0  0  0
 10 13  1  0  0  0
 10 14  1  0  0  0
 16 17  1  0  0  0
 11  1  1  0  0  0
  1  2  1  0  0  0
  2  5  2  0  0  0
  2  6  1  0  0  0
  3  4  1  0  0  0
  3  9  1  0  0  0
  4  7  2  0  0  0
  4  8  1  0  0  0
  5  7  1  0  0  0
  6  8  2  0  0  0
M  CHG 1  10   1
M  END
> <minimizedAffinity>
-5.08743

$$$$
TYE


 17 17  0  0  0  0  0  0  0  0999 V2000
   77.7526    3.7624   30.3207 C   0  0  0  0  0  0  0  0  0  0  0  0
   77.8868    4.2373   28.8864 C   0  0  0  0  0  0  0  0  0  0  0  0
   78.4231    5.5074   24.9425 O   0  0  0  0  0  0  0  0  0  0  0  0
   78.2503    5.1050   26.2302 C   0  0  0  0  0  0  0  0  0  0  0  0
   78.0804    5.6064   28.6123 C   0  0  0  0  0  0  0  0  0  0  0  0
   77.8657    3.3038   27.8306 C   0  0  0  0  0  0  0  0  0  0  0  0
   78.2602    6.0424   27.2869 C   0  0  0  0  0  0  0  0  0  0  0  0
   78.0509    3.7366   26.5062 C   0  0  0  0  0  0  0  0  0  0  0  0
   78.5124    6.4572   24.8446 H   0  0  0  0  0  0  0  0  0  0  0  0
   80.1477    3.3564   29.9226 N   0  0  0  0  0  0  0  0  0  0  0  0
   79.0095    3.0255   30.8062 C   0  0  0  0  0  0  0  0  0  0  0  0
   79.9456    2.8984   29.0394 H   0  0  0  0  0  0  0  0  0  0  0  0
   81.0114    2.9773   30.2756 H   0  0  0  0  0  0  0  0  0  0  0  0
   80.1982    4.3607   29.7949 H   0  0  0  0  0  0  0  0  0  0  0  0
   78.7757    1.5001   30.8063 C   0  0  0  0  0  0  0  0  0  0  0  0
   77.3999    1.2439   31.0803 O   0  0  0  0  0  0  0  0  0  0  0  0
   77.2496    0.2920   31.1809 H   0  0  0  0  0  0  0  0  0  0  0  0
 15 16  1  0  0  0
 15 11  1  0  0  0
 10 11  1  0  0  0
 10 12  1  0  0  0
 10 13  1  0  0  0
 10 14  1  0  0  0
 16 17  1  0  0  0
 11  1  1  0  0  0
  1  2  1  0  0  0
  2  5  2  0  0  0
  2  6  1  0  0  0
  3  4  1  0  0  0
  3  9  1  0  0  0
  4  7  2  0  0  0
  4  8  1  0  0  0
  5  7  1  0  0  0
  6  8  2  0  0  0
M  CHG 1  10   1
M  END
> <minimizedAffinity>
-5.07222

$$$$
TYE


 17 17  0  0  0  0  0  0  0  0999 V2000
   60.6309   18.6422   25.9607 C   0  0  0  0  0  0  0  0  0  0  0  0
   59.8884   19.7383   26.7011 C   0  0  0  0  0  0  0  0  0  0  0  0
   57.8386   22.8473   28.5951 O   0  0  0  0  0  0  0  0  0  0  0  0
   58.5163   21.8400   27.9818 C   0  0  0  0  0  0  0  0  0  0  0  0
   60.6066   20.7095   27.4277 C   0  0  0  0  0  0  0  0  0  0  0  0
   58.4831   19.8135   26.6232 C   0  0  0  0  0  0  0  0  0  0  0  0
   59.9238   21.7587   28.0697 C   0  0  0  0  0  0  0  0  0  0  0  0
   57.7994   20.8642   27.2591 C   0  0  0  0  0  0  0  0  0  0  0  0
   58.4014   23.4414   29.0951 H   0  0  0  0  0  0  0  0  0  0  0  0
   62.9425   18.0507   25.3557 N   0  0  0  0  0  0  0  0  0  0  0  0
   62.0688   18.4702   26.4720 C   0  0  0  0  0  0  0  0  0  0  0  0
   62.6654   17.0982   25.1394 H   0  0  0  0  0  0  0  0  0  0  0  0
   63.9111   18.0346   25.6310 H   0  0  0  0  0  0  0  0  0  0  0  0
   62.7853   18.6533   24.5559 H   0  0  0  0  0  0  0  0  0  0  0  0
   62.1196   17.4166   27.5984 C   0  0  0  0  0  0  0  0  0  0  0  0
   63.4166   17.4363   28.1909 O   0  0  0  0  0  0  0  0  0  0  0  0
   63.5019   16.7174   28.8350 H   0  0  0  0  0  0  0  0  0  0  0  0
 15 16  1  0  0  0
 15 11  1  0  0  0
 10 11  1  0  0  0
 10 12  1  0  0  0
 10 13  1  0  0  0
 10 14  1  0  0  0
 16 17  1  0  0  0
 11  1  1  0  0  0
  1  2  1  0  0  0
  2  5  2  0  0  0
  2  6  1  0  0  0
  3  4  1  0  0  0
  3  9  1  0  0  0
  4  7  2  0  0  0
  4  8  1  0  0  0
  5  7  1  0  0  0
  6  8  2  0  0  0
M  CHG 1  10   1
M  END
> <minimizedAffinity>
-5.03882

$$$$
TYE


 17 17  0  0  0  0  0  0  0  0999 V2000
   58.3829   32.4750   35.6040 C   0  0  0  0  0  0  0  0  0  0  0  0
   58.9155   31.2057   36.2410 C   0  0  0  0  0  0  0  0  0  0  0  0
   60.2506   27.6240   37.9276 O   0  0  0  0  0  0  0  0  0  0  0  0
   59.8100   28.7924   37.3885 C   0  0  0  0  0  0  0  0  0  0  0  0
   58.5886   30.8966   37.5769 C   0  0  0  0  0  0  0  0  0  0  0  0
   59.6976   30.3116   35.4824 C   0  0  0  0  0  0  0  0  0  0  0  0
   59.0357   29.6934   38.1528 C   0  0  0  0  0  0  0  0  0  0  0  0
   60.1404   29.1062   36.0540 C   0  0  0  0  0  0  0  0  0  0  0  0
   60.0127   27.5116   38.8497 H   0  0  0  0  0  0  0  0  0  0  0  0
   56.1881   33.5818   35.7365 N   0  0  0  0  0  0  0  0  0  0  0  0
   57.3867   33.2061   36.5160 C   0  0  0  0  0  0  0  0  0  0  0  0
   56.4955   34.3154   35.1056 H   0  0  0  0  0  0  0  0  0  0  0  0
   55.4686   33.9655   36.3276 H   0  0  0  0  0  0  0  0  0  0  0  0
   55.8595   32.7800   35.2104 H   0  0  0  0  0  0  0  0  0  0  0  0
   58.0338   34.4704   37.1195 C   0  0  0  0  0  0  0  0  0  0  0  0
   57.4251   34.7440   38.3798 O   0  0  0  0  0  0  0  0  0  0  0  0
   57.7477   35.5870   38.7320 H   0  0  0  0  0  0  0  0  0  0  0  0
 15 16  1  0  0  0
 15 11  1  0  0  0
 10 11  1  0  0  0
 10 12  1  0  0  0
 10 13  1  0  0  0
 10 14  1  0  0  0
 16 17  1  0  0  0
 11  1  1  0  0  0
  1  2  1  0  0  0
  2  5  2  0  0  0
  2  6  1  0  0  0
  3  4  1  0  0  0
  3  9  1  0  0  0
  4  7  2  0  0  0
  4  8  1  0  0  0
  5  7  1  0  0  0
  6  8  2  0  0  0
M  CHG 1  10   1
M  END
> <minimizedAffinity>
-5.00260

$$$$
TYE


 17 17  0  0  0  0  0  0  0  0999 V2000
   59.5548   30.5462   37.2856 C   0  0  0  0  0  0  0  0  0  0  0  0
   58.3226   31.4304   37.3091 C   0  0  0  0  0  0  0  0  0  0  0  0
   55.0125   33.9741   37.4763 O   0  0  0  0  0  0  0  0  0  0  0  0
   56.0857   33.1398   37.4310 C   0  0  0  0  0  0  0  0  0  0  0  0
   57.2842   31.1683   38.2257 C   0  0  0  0  0  0  0  0  0  0  0  0
   58.2372   32.5424   36.4472 C   0  0  0  0  0  0  0  0  0  0  0  0
   56.1654   32.0191   38.2872 C   0  0  0  0  0  0  0  0  0  0  0  0
   57.1230   33.3969   36.5110 C   0  0  0  0  0  0  0  0  0  0  0  0
   54.3390   33.7015   38.1023 H   0  0  0  0  0  0  0  0  0  0  0  0
   60.2383   28.8618   35.6258 N   0  0  0  0  0  0  0  0  0  0  0  0
   60.0718   30.3121   35.8585 C   0  0  0  0  0  0  0  0  0  0  0  0
   61.0291   28.5854   36.1995 H   0  0  0  0  0  0  0  0  0  0  0  0
   60.4713   28.6663   34.6657 H   0  0  0  0  0  0  0  0  0  0  0  0
   59.4013   28.3718   35.9205 H   0  0  0  0  0  0  0  0  0  0  0  0
   61.4201   31.0325   35.6471 C   0  0  0  0  0  0  0  0  0  0  0  0
   61.2435   32.0696   34.6844 O   0  0  0  0  0  0  0  0  0  0  0  0
   62.0972   32.4719   34.4646 H   0  0  0  0  0  0  0  0  0  0  0  0
 15 16  1  0  0  0
 15 11  1  0  0  0
 10 11  1  0  0  0
 10 12  1  0  0  0
 10 13  1  0  0  0
 10 14  1  0  0  0
 16 17  1  0  0  0
 11  1  1  0  0  0
  1  2  1  0  0  0
  2  5  2  0  0  0
  2  6  1  0  0  0
  3  4  1  0  0  0
  3  9  1  0  0  0
  4  7  2  0  0  0
  4  8  1  0  0  0
  5  7  1  0  0  0
  6  8  2  0  0  0
M  CHG 1  10   1
M  END
> <minimizedAffinity>
-4.99987

$$$$
TYE


 17 17  0  0  0  0  0  0  0  0999 V2000
   61.9463   21.3798   30.1073 C   0  0  0  0  0  0  0  0  0  0  0  0
   62.1767   20.5630   28.8502 C   0  0  0  0  0  0  0  0  0  0  0  0
   62.9359   18.4221   25.3437 O   0  0  0  0  0  0  0  0  0  0  0  0
   62.6805   19.1253   26.4795 C   0  0  0  0  0  0  0  0  0  0  0  0
   61.3937   20.7999   27.7022 C   0  0  0  0  0  0  0  0  0  0  0  0
   63.2056   19.6002   28.8146 C   0  0  0  0  0  0  0  0  0  0  0  0
   61.6419   20.0820   26.5180 C   0  0  0  0  0  0  0  0  0  0  0  0
   63.4589   18.8860   27.6307 C   0  0  0  0  0  0  0  0  0  0  0  0
   62.3340   18.6210   24.6241 H   0  0  0  0  0  0  0  0  0  0  0  0
   62.1744   23.8244   29.9306 N   0  0  0  0  0  0  0  0  0  0  0  0
   61.2205   22.7011   29.8139 C   0  0  0  0  0  0  0  0  0  0  0  0
   62.3843   23.8984   30.9212 H   0  0  0  0  0  0  0  0  0  0  0  0
   61.7584   24.6938   29.6382 H   0  0  0  0  0  0  0  0  0  0  0  0
   63.0161   23.6116   29.4073 H   0  0  0  0  0  0  0  0  0  0  0  0
   60.0507   22.9056   30.7994 C   0  0  0  0  0  0  0  0  0  0  0  0
   60.0891   24.2439   31.2902 O   0  0  0  0  0  0  0  0  0  0  0  0
   59.4226   24.3662   31.9829 H   0  0  0  0  0  0  0  0  0  0  0  0
 15 16  1  0  0  0
 15 11  1  0  0  0
 10 11  1  0  0  0
 10 12  1  0  0  0
 10 13  1  0  0  0
 10 14  1  0  0  0
 16 17  1  0  0  0
 11  1  1  0  0  0
  1  2  1  0  0  0
  2  5  2  0  0  0
  2  6  1  0  0  0
  3  4  1  0  0  0
  3  9  1  0  0  0
  4  7  2  0  0  0
  4  8  1  0  0  0
  5  7  1  0  0  0
  6  8  2  0  0  0
M  CHG 1  10   1
M  END
> <minimizedAffinity>
-4.97328

$$$$
TYE


 17 17  0  0  0  0  0  0  0  0999 V2000
   60.3127   16.4510   27.1775 C   0  0  0  0  0  0  0  0  0  0  0  0
   59.5419   17.7501   27.0405 C   0  0  0  0  0  0  0  0  0  0  0  0
   57.5494   21.4098   26.7380 O   0  0  0  0  0  0  0  0  0  0  0  0
   58.1926   20.2164   26.8468 C   0  0  0  0  0  0  0  0  0  0  0  0
   58.5921   18.1125   28.0169 C   0  0  0  0  0  0  0  0  0  0  0  0
   59.8097   18.6175   25.9622 C   0  0  0  0  0  0  0  0  0  0  0  0
   57.9156   19.3424   27.9215 C   0  0  0  0  0  0  0  0  0  0  0  0
   59.1392   19.8493   25.8681 C   0  0  0  0  0  0  0  0  0  0  0  0
   56.8962   21.5591   27.4241 H   0  0  0  0  0  0  0  0  0  0  0  0
   58.5447   14.7969   26.7329 N   0  0  0  0  0  0  0  0  0  0  0  0
   59.8031   15.3712   26.2115 C   0  0  0  0  0  0  0  0  0  0  0  0
   58.8124   14.2584   27.5510 H   0  0  0  0  0  0  0  0  0  0  0  0
   58.1258   14.1638   26.0712 H   0  0  0  0  0  0  0  0  0  0  0  0
   57.9126   15.5447   26.9952 H   0  0  0  0  0  0  0  0  0  0  0  0
   60.8558   14.2553   26.0441 C   0  0  0  0  0  0  0  0  0  0  0  0
   60.2042   13.0696   25.5935 O   0  0  0  0  0  0  0  0  0  0  0  0
   60.8297   12.3299   25.5742 H   0  0  0  0  0  0  0  0  0  0  0  0
 15 16  1  0  0  0
 15 11  1  0  0  0
 10 11  1  0  0  0
 10 12  1  0  0  0
 10 13  1  0  0  0
 10 14  1  0  0  0
 16 17  1  0  0  0
 11  1  1  0  0  0
  1  2  1  0  0  0
  2  5  2  0  0  0
  2  6  1  0  0  0
  3  4  1  0  0  0
  3  9  1  0  0  0
  4  7  2  0  0  0
  4  8  1  0  0  0
  5  7  1  0  0  0
  6  8  2  0  0  0
M  CHG 1  10   1
M  END
> <minimizedAffinity>
-4.95703

$$$$
TYE


 17 17  0  0  0  0  0  0  0  0999 V2000
   61.3557   21.9687   27.3945 C   0  0  0  0  0  0  0  0  0  0  0  0
   61.7972   20.5869   26.9516 C   0  0  0  0  0  0  0  0  0  0  0  0
   63.0624   16.8481   25.5820 O   0  0  0  0  0  0  0  0  0  0  0  0
   62.6396   18.0629   26.0239 C   0  0  0  0  0  0  0  0  0  0  0  0
   60.8623   19.6948   26.3884 C   0  0  0  0  0  0  0  0  0  0  0  0
   63.1518   20.2123   27.0590 C   0  0  0  0  0  0  0  0  0  0  0  0
   61.2799   18.4333   25.9264 C   0  0  0  0  0  0  0  0  0  0  0  0
   63.5722   18.9547   26.5927 C   0  0  0  0  0  0  0  0  0  0  0  0
   62.3558   16.2928   25.2472 H   0  0  0  0  0  0  0  0  0  0  0  0
   60.9535   21.7462   29.8128 N   0  0  0  0  0  0  0  0  0  0  0  0
   61.8671   22.3167   28.8002 C   0  0  0  0  0  0  0  0  0  0  0  0
   60.0995   22.2908   29.7431 H   0  0  0  0  0  0  0  0  0  0  0  0
   61.3171   21.8617   30.7449 H   0  0  0  0  0  0  0  0  0  0  0  0
   60.7693   20.7734   29.5951 H   0  0  0  0  0  0  0  0  0  0  0  0
   61.9550   23.8468   28.9801 C   0  0  0  0  0  0  0  0  0  0  0  0
   61.7129   24.4742   27.7226 O   0  0  0  0  0  0  0  0  0  0  0  0
   61.8583   25.4297   27.7911 H   0  0  0  0  0  0  0  0  0  0  0  0
 15 16  1  0  0  0
 15 11  1  0  0  0
 10 11  1  0  0  0
 10 12  1  0  0  0
 10 13  1  0  0  0
 10 14  1  0  0  0
 16 17  1  0  0  0
 11  1  1  0  0  0
  1  2  1  0  0  0
  2  5  2  0  0  0
  2  6  1  0  0  0
  3  4  1  0  0  0
  3  9  1  0  0  0
  4  7  2  0  0  0
  4  8  1  0  0  0
  5  7  1  0  0  0
  6  8  2  0  0  0
M  CHG 1  10   1
M  END
> <minimizedAffinity>
-4.94363

$$$$
TYE


 17 17  0  0  0  0  0  0  0  0999 V2000
   62.1128   21.8316   28.6947 C   0  0  0  0  0  0  0  0  0  0  0  0
   62.1245   20.6964   27.6889 C   0  0  0  0  0  0  0  0  0  0  0  0
   62.0996   17.4648   25.0409 O   0  0  0  0  0  0  0  0  0  0  0  0
   62.1191   18.5146   25.9055 C   0  0  0  0  0  0  0  0  0  0  0  0
   63.3131   19.9765   27.4521 C   0  0  0  0  0  0  0  0  0  0  0  0
   60.9355   20.3304   27.0262 C   0  0  0  0  0  0  0  0  0  0  0  0
   63.3135   18.8881   26.5607 C   0  0  0  0  0  0  0  0  0  0  0  0
   60.9325   19.2396   26.1396 C   0  0  0  0  0  0  0  0  0  0  0  0
   62.9574   17.0556   24.9128 H   0  0  0  0  0  0  0  0  0  0  0  0
   63.0084   23.6495   27.2973 N   0  0  0  0  0  0  0  0  0  0  0  0
   61.8141   23.1860   28.0352 C   0  0  0  0  0  0  0  0  0  0  0  0
   63.6890   23.8920   28.0105 H   0  0  0  0  0  0  0  0  0  0  0  0
   62.8128   24.4805   26.7631 H   0  0  0  0  0  0  0  0  0  0  0  0
   63.3610   22.8983   26.7150 H   0  0  0  0  0  0  0  0  0  0  0  0
   61.4211   24.2311   29.1005 C   0  0  0  0  0  0  0  0  0  0  0  0
   62.0790   23.9122   30.3248 O   0  0  0  0  0  0  0  0  0  0  0  0
   61.7719   24.4980   31.0329 H   0  0  0  0  0  0  0  0  0  0  0  0
 15 16  1  0  0  0
 15 11  1  0  0  0
 10 11  1  0  0  0
 10 12  1  0  0  0
 10 13  1  0  0  0
 10 14  1  0  0  0
 16 17  1  0  0  0
 11  1  1  0  0  0
  1  2  1  0  0  0
  2  5  2  0  0  0
  2  6  1  0  0  0
  3  4  1  0  0  0
  3  9  1  0  0  0
  4  7  2  0  0  0
  4  8  1  0  0  0
  5  7  1  0  0  0
  6  8  2  0  0  0
M  CHG 1  10   1
M  END
> <minimizedAffinity>
-4.92712

$$$$
TYE


 17 17  0  0  0  0  0  0  0  0999 V2000
   76.5692   16.3354   37.2403 C   0  0  0  0  0  0  0  0  0  0  0  0
   77.4860   15.3572   36.5309 C   0  0  0  0  0  0  0  0  0  0  0  0
   80.0136   12.7682   34.4419 O   0  0  0  0  0  0  0  0  0  0  0  0
   79.1813   13.6051   35.1179 C   0  0  0  0  0  0  0  0  0  0  0  0
   76.9412   14.2647   35.8260 C   0  0  0  0  0  0  0  0  0  0  0  0
   78.8797   15.5674   36.5363 C   0  0  0  0  0  0  0  0  0  0  0  0
   77.7856   13.3874   35.1214 C   0  0  0  0  0  0  0  0  0  0  0  0
   79.7246   14.6954   35.8283 C   0  0  0  0  0  0  0  0  0  0  0  0
   79.5626   12.0338   34.0212 H   0  0  0  0  0  0  0  0  0  0  0  0
   77.0730   17.4523   39.3754 N   0  0  0  0  0  0  0  0  0  0  0  0
   77.3494   17.4684   37.9232 C   0  0  0  0  0  0  0  0  0  0  0  0
   76.1084   17.7548   39.4698 H   0  0  0  0  0  0  0  0  0  0  0  0
   77.6523   18.1120   39.8688 H   0  0  0  0  0  0  0  0  0  0  0  0
   77.1828   16.5098   39.7320 H   0  0  0  0  0  0  0  0  0  0  0  0
   76.9470   18.8353   37.3308 C   0  0  0  0  0  0  0  0  0  0  0  0
   75.7809   18.6653   36.5277 O   0  0  0  0  0  0  0  0  0  0  0  0
   75.5667   19.4911   36.0685 H   0  0  0  0  0  0  0  0  0  0  0  0
 15 16  1  0  0  0
 15 11  1  0  0  0
 10 11  1  0  0  0
 10 12  1  0  0  0
 10 13  1  0  0  0
 10 14  1  0  0  0
 16 17  1  0  0  0
 11  1  1  0  0  0
  1  2  1  0  0  0
  2  5  2  0  0  0
  2  6  1  0  0  0
  3  4  1  0  0  0
  3  9  1  0  0  0
  4  7  2  0  0  0
  4  8  1  0  0  0
  5  7  1  0  0  0
  6  8  2  0  0  0
M  CHG 1  10   1
M  END
> <minimizedAffinity>
-4.89598

$$$$
TYE


 17 17  0  0  0  0  0  0  0  0999 V2000
   81.4728   16.2720   35.4771 C   0  0  0  0  0  0  0  0  0  0  0  0
   80.4406   15.1621   35.5364 C   0  0  0  0  0  0  0  0  0  0  0  0
   77.5033   12.2031   35.8038 O   0  0  0  0  0  0  0  0  0  0  0  0
   78.4653   13.1614   35.7258 C   0  0  0  0  0  0  0  0  0  0  0  0
   80.5913   14.1080   36.4600 C   0  0  0  0  0  0  0  0  0  0  0  0
   79.3062   15.2100   34.7012 C   0  0  0  0  0  0  0  0  0  0  0  0
   79.6075   13.1067   36.5552 C   0  0  0  0  0  0  0  0  0  0  0  0
   78.3193   14.2139   34.7987 C   0  0  0  0  0  0  0  0  0  0  0  0
   77.7035   11.5067   36.4320 H   0  0  0  0  0  0  0  0  0  0  0  0
   81.8579   18.1111   33.8868 N   0  0  0  0  0  0  0  0  0  0  0  0
   80.9010   17.5620   34.8708 C   0  0  0  0  0  0  0  0  0  0  0  0
   82.6437   18.4488   34.4339 H   0  0  0  0  0  0  0  0  0  0  0  0
   81.4679   18.8961   33.3909 H   0  0  0  0  0  0  0  0  0  0  0  0
   82.1578   17.3754   33.2571 H   0  0  0  0  0  0  0  0  0  0  0  0
   80.6324   18.6057   35.9754 C   0  0  0  0  0  0  0  0  0  0  0  0
   79.3154   18.4091   36.4858 O   0  0  0  0  0  0  0  0  0  0  0  0
   79.0900   19.1133   37.1121 H   0  0  0  0  0  0  0  0  0  0  0  0
 15 16  1  0  0  0
 15 11  1  0  0  0
 10 11  1  0  0  0
 10 12  1  0  0  0
 10 13  1  0  0  0
 10 14  1  0  0  0
 16 17  1  0  0  0
 11  1  1  0  0  0
  1  2  1  0  0  0
  2  5  2  0  0  0
  2  6  1  0  0  0
  3  4  1  0  0  0
  3  9  1  0  0  0
  4  7  2  0  0  0
  4  8  1  0  0  0
  5  7  1  0  0  0
  6  8  2  0  0  0
M  CHG 1  10   1
M  END
> <minimizedAffinity>
-4.87265

$$$$
TYE


 17 17  0  0  0  0  0  0  0  0999 V2000
   78.8075   14.3517   34.7579 C   0  0  0  0  0  0  0  0  0  0  0  0
   80.0997   15.0437   35.1476 C   0  0  0  0  0  0  0  0  0  0  0  0
   83.5779   17.0184   36.3550 O   0  0  0  0  0  0  0  0  0  0  0  0
   82.4429   16.3847   35.9548 C   0  0  0  0  0  0  0  0  0  0  0  0
   80.4426   16.2788   34.5612 C   0  0  0  0  0  0  0  0  0  0  0  0
   80.9342   14.4752   36.1310 C   0  0  0  0  0  0  0  0  0  0  0  0
   81.6129   16.9494   34.9610 C   0  0  0  0  0  0  0  0  0  0  0  0
   82.1009   15.1463   36.5361 C   0  0  0  0  0  0  0  0  0  0  0  0
   83.7521   17.8330   35.8797 H   0  0  0  0  0  0  0  0  0  0  0  0
   77.9771   12.3170   35.8671 N   0  0  0  0  0  0  0  0  0  0  0  0
   78.0621   13.7888   35.9770 C   0  0  0  0  0  0  0  0  0  0  0  0
   77.3289   12.1403   35.1060 H   0  0  0  0  0  0  0  0  0  0  0  0
   77.5914   11.9062   36.7018 H   0  0  0  0  0  0  0  0  0  0  0  0
   78.8914   11.9392   35.6457 H   0  0  0  0  0  0  0  0  0  0  0  0
   76.6428   14.3880   36.0669 C   0  0  0  0  0  0  0  0  0  0  0  0
   76.6873   15.7471   35.6377 O   0  0  0  0  0  0  0  0  0  0  0  0
   75.8273   16.1711   35.7771 H   0  0  0  0  0  0  0  0  0  0  0  0
 15 16  1  0  0  0
 15 11  1  0  0  0
 10 11  1  0  0  0
 10 12  1  0  0  0
 10 13  1  0  0  0
 10 14  1  0  0  0
 16 17  1  0  0  0
 11  1  1  0  0  0
  1  2  1  0  0  0
  2  5  2  0  0  0
  2  6  1  0  0  0
  3  4  1  0  0  0
  3  9  1  0  0  0
  4  7  2  0  0  0
  4  8  1  0  0  0
  5  7  1  0  0  0
  6  8  2  0  0  0
M  CHG 1  10   1
M  END
> <minimizedAffinity>
-4.85914

$$$$
TYE


 17 17  0  0  0  0  0  0  0  0999 V2000
   62.2158   17.9805   27.3742 C   0  0  0  0  0  0  0  0  0  0  0  0
   60.9601   18.8219   27.2480 C   0  0  0  0  0  0  0  0  0  0  0  0
   57.5963   21.2646   26.8322 O   0  0  0  0  0  0  0  0  0  0  0  0
   58.6929   20.4734   26.9786 C   0  0  0  0  0  0  0  0  0  0  0  0
   60.5105   19.5862   28.3438 C   0  0  0  0  0  0  0  0  0  0  0  0
   60.2697   18.8769   26.0203 C   0  0  0  0  0  0  0  0  0  0  0  0
   59.3777   20.4100   28.2125 C   0  0  0  0  0  0  0  0  0  0  0  0
   59.1411   19.7037   25.8853 C   0  0  0  0  0  0  0  0  0  0  0  0
   57.3405   21.7207   27.6361 H   0  0  0  0  0  0  0  0  0  0  0  0
   64.2982   17.4338   26.1808 N   0  0  0  0  0  0  0  0  0  0  0  0
   63.3696   18.5318   26.5236 C   0  0  0  0  0  0  0  0  0  0  0  0
   64.7586   17.1879   27.0517 H   0  0  0  0  0  0  0  0  0  0  0  0
   65.0069   17.7383   25.5332 H   0  0  0  0  0  0  0  0  0  0  0  0
   63.7733   16.6431   25.8247 H   0  0  0  0  0  0  0  0  0  0  0  0
   64.1275   19.6355   27.2909 C   0  0  0  0  0  0  0  0  0  0  0  0
   64.2652   19.2391   28.6538 O   0  0  0  0  0  0  0  0  0  0  0  0
   64.6522   19.9585   29.1748 H   0  0  0  0  0  0  0  0  0  0  0  0
 15 16  1  0  0  0
 15 11  1  0  0  0
 10 11  1  0  0  0
 10 12  1  0  0  0
 10 13  1  0  0  0
 10 14  1  0  0  0
 16 17  1  0  0  0
 11  1  1  0  0  0
  1  2  1  0  0  0
  2  5  2  0  0  0
  2  6  1  0  0  0
  3  4  1  0  0  0
  3  9  1  0  0  0
  4  7  2  0  0  0
  4  8  1  0  0  0
  5  7  1  0  0  0
  6  8  2  0  0  0
M  CHG 1  10   1
M  END
> <minimizedAffinity>
-4.85753

$$$$
TYE


 17 17  0  0  0  0  0  0  0  0999 V2000
   77.3984    3.2500   30.1328 C   0  0  0  0  0  0  0  0  0  0  0  0
   77.5968    1.8525   30.6881 C   0  0  0  0  0  0  0  0  0  0  0  0
   78.3124   -1.9704   32.2140 O   0  0  0  0  0  0  0  0  0  0  0  0
   78.0793   -0.7303   31.7063 C   0  0  0  0  0  0  0  0  0  0  0  0
   77.6250    0.7451   29.8164 C   0  0  0  0  0  0  0  0  0  0  0  0
   77.8008    1.6662   32.0702 C   0  0  0  0  0  0  0  0  0  0  0  0
   77.8637   -0.5458   30.3225 C   0  0  0  0  0  0  0  0  0  0  0  0
   78.0452    0.3782   32.5772 C   0  0  0  0  0  0  0  0  0  0  0  0
   78.2790   -2.6681   31.5569 H   0  0  0  0  0  0  0  0  0  0  0  0
   79.8111    3.6223   29.8165 N   0  0  0  0  0  0  0  0  0  0  0  0
   78.4994    3.6378   29.1348 C   0  0  0  0  0  0  0  0  0  0  0  0
   79.7944    4.4142   30.4516 H   0  0  0  0  0  0  0  0  0  0  0  0
   80.5668    3.7650   29.1662 H   0  0  0  0  0  0  0  0  0  0  0  0
   79.9147    2.7573   30.3348 H   0  0  0  0  0  0  0  0  0  0  0  0
   78.2310    5.0412   28.5521 C   0  0  0  0  0  0  0  0  0  0  0  0
   77.1924    5.6632   29.3057 O   0  0  0  0  0  0  0  0  0  0  0  0
   76.9407    6.5055   28.8983 H   0  0  0  0  0  0  0  0  0  0  0  0
 15 16  1  0  0  0
 15 11  1  0  0  0
 10 11  1  0  0  0
 10 12  1  0  0  0
 10 13  1  0  0  0
 10 14  1  0  0  0
 16 17  1  0  0  0
 11  1  1  0  0  0
  1  2  1  0  0  0
  2  5  2  0  0  0
  2  6  1  0  0  0
  3  4  1  0  0  0
  3  9  1  0  0  0
  4  7  2  0  0  0
  4  8  1  0  0  0
  5  7  1  0  0  0
  6  8  2  0  0  0
M  CHG 1  10   1
M  END
> <minimizedAffinity>
-4.77873

$$$$
TYE


 17 17  0  0  0  0  0  0  0  0999 V2000
   61.0637   20.3404   28.0295 C   0  0  0  0  0  0  0  0  0  0  0  0
   60.1625   21.2238   28.8709 C   0  0  0  0  0  0  0  0  0  0  0  0
   57.7763   23.7918   31.1441 O   0  0  0  0  0  0  0  0  0  0  0  0
   58.5597   22.9535   30.4136 C   0  0  0  0  0  0  0  0  0  0  0  0
   60.3962   21.3544   30.2549 C   0  0  0  0  0  0  0  0  0  0  0  0
   59.1209   21.9516   28.2608 C   0  0  0  0  0  0  0  0  0  0  0  0
   59.5961   22.2158   31.0277 C   0  0  0  0  0  0  0  0  0  0  0  0
   58.3242   22.8171   29.0300 C   0  0  0  0  0  0  0  0  0  0  0  0
   57.9817   23.7923   32.0808 H   0  0  0  0  0  0  0  0  0  0  0  0
   62.7025   21.9257   27.1019 N   0  0  0  0  0  0  0  0  0  0  0  0
   62.5252   20.8115   28.0572 C   0  0  0  0  0  0  0  0  0  0  0  0
   62.6186   21.5073   26.1807 H   0  0  0  0  0  0  0  0  0  0  0  0
   63.6219   22.3306   27.1736 H   0  0  0  0  0  0  0  0  0  0  0  0
   61.9724   22.6145   27.2435 H   0  0  0  0  0  0  0  0  0  0  0  0
   63.4740   19.6519   27.6880 C   0  0  0  0  0  0  0  0  0  0  0  0
   64.2371   19.2954   28.8387 O   0  0  0  0  0  0  0  0  0  0  0  0
   64.9070   18.6353   28.6055 H   0  0  0  0  0  0  0  0  0  0  0  0
 15 16  1  0  0  0
 15 11  1  0  0  0
 10 11  1  0  0  0
 10 12  1  0  0  0
 10 13  1  0  0  0
 10 14  1  0  0  0
 16 17  1  0  0  0
 11  1  1  0  0  0
  1  2  1  0  0  0
  2  5  2  0  0  0
  2  6  1  0  0  0
  3  4  1  0  0  0
  3  9  1  0  0  0
  4  7  2  0  0  0
  4  8  1  0  0  0
  5  7  1  0  0  0
  6  8  2  0  0  0
M  CHG 1  10   1
M  END
> <minimizedAffinity>
-4.76346

$$$$
