TYE
     RDKit          3D

 12 12  0  0  0  0  0  0  0  0999 V2000
   61.9463   21.3798   30.1073 C   0  0  0  0  0  0  0  0  0  0  0  0
   62.1767   20.5630   28.8502 C   0  0  0  0  0  0  0  0  0  0  0  0
   62.9359   18.4221   25.3437 O   0  0  0  0  0  0  0  0  0  0  0  0
   62.6805   19.1253   26.4795 C   0  0  0  0  0  0  0  0  0  0  0  0
   61.3937   20.7999   27.7022 C   0  0  0  0  0  0  0  0  0  0  0  0
   63.2056   19.6002   28.8146 C   0  0  0  0  0  0  0  0  0  0  0  0
   61.6419   20.0820   26.5180 C   0  0  0  0  0  0  0  0  0  0  0  0
   63.4589   18.8860   27.6307 C   0  0  0  0  0  0  0  0  0  0  0  0
   62.1744   23.8244   29.9306 N   0  0  0  0  0  0  0  0  0  0  0  0
   61.2205   22.7011   29.8139 C   0  0  2  0  0  0  0  0  0  0  0  0
   60.0507   22.9056   30.7994 C   0  0  0  0  0  0  0  0  0  0  0  0
   60.0891   24.2439   31.2902 O   0  0  0  0  0  0  0  0  0  0  0  0
 11 12  1  0
 11 10  1  0
 10  9  1  1
 10  1  1  0
  1  2  1  0
  2  5  2  0
  2  6  1  0
  3  4  1  0
  4  7  2  0
  4  8  1  0
  5  7  1  0
  6  8  2  0
M  CHG  1   9   1
M  END
>  <minimizedAffinity>  (1) 
-4.97328

$$$$
