TYE
     RDKit          3D

 12 12  0  0  0  0  0  0  0  0999 V2000
   77.3984    3.2500   30.1328 C   0  0  0  0  0  0  0  0  0  0  0  0
   77.5968    1.8525   30.6881 C   0  0  0  0  0  0  0  0  0  0  0  0
   78.3124   -1.9704   32.2140 O   0  0  0  0  0  0  0  0  0  0  0  0
   78.0793   -0.7303   31.7063 C   0  0  0  0  0  0  0  0  0  0  0  0
   77.6250    0.7451   29.8164 C   0  0  0  0  0  0  0  0  0  0  0  0
   77.8008    1.6662   32.0702 C   0  0  0  0  0  0  0  0  0  0  0  0
   77.8637   -0.5458   30.3225 C   0  0  0  0  0  0  0  0  0  0  0  0
   78.0452    0.3782   32.5772 C   0  0  0  0  0  0  0  0  0  0  0  0
   79.8111    3.6223   29.8165 N   0  0  0  0  0  0  0  0  0  0  0  0
   78.4994    3.6378   29.1348 C   0  0  2  0  0  0  0  0  0  0  0  0
   78.2310    5.0412   28.5521 C   0  0  0  0  0  0  0  0  0  0  0  0
   77.1924    5.6632   29.3057 O   0  0  0  0  0  0  0  0  0  0  0  0
 11 12  1  0
 11 10  1  0
 10  9  1  1
 10  1  1  0
  1  2  1  0
  2  5  2  0
  2  6  1  0
  3  4  1  0
  4  7  2  0
  4  8  1  0
  5  7  1  0
  6  8  2  0
M  CHG  1   9   1
M  END
>  <minimizedAffinity>  (1) 
-4.77873

$$$$
