TYE
     RDKit          3D

 12 12  0  0  0  0  0  0  0  0999 V2000
   62.1145   21.9736   28.3063 C   0  0  0  0  0  0  0  0  0  0  0  0
   60.8763   22.6521   28.8606 C   0  0  0  0  0  0  0  0  0  0  0  0
   57.4728   24.4158   30.5221 O   0  0  0  0  0  0  0  0  0  0  0  0
   58.5739   23.8343   29.9750 C   0  0  0  0  0  0  0  0  0  0  0  0
   59.5967   22.2355   28.4412 C   0  0  0  0  0  0  0  0  0  0  0  0
   61.0039   23.6667   29.8307 C   0  0  0  0  0  0  0  0  0  0  0  0
   58.4456   22.8255   28.9946 C   0  0  0  0  0  0  0  0  0  0  0  0
   59.8551   24.2534   30.3890 C   0  0  0  0  0  0  0  0  0  0  0  0
   62.5933   20.4256   30.1594 N   0  0  0  0  0  0  0  0  0  0  0  0
   62.2081   20.5016   28.7342 C   0  0  2  0  0  0  0  0  0  0  0  0
   63.2469   19.7532   27.8725 C   0  0  0  0  0  0  0  0  0  0  0  0
   64.3252   19.3364   28.7074 O   0  0  0  0  0  0  0  0  0  0  0  0
 11 12  1  0
 11 10  1  0
 10  9  1  1
 10  1  1  0
  1  2  1  0
  2  5  2  0
  2  6  1  0
  3  4  1  0
  4  7  2  0
  4  8  1  0
  5  7  1  0
  6  8  2  0
M  CHG  1   9   1
M  END
>  <minimizedAffinity>  (1) 
-5.45637

$$$$
