@<TRIPOS>MOLECULE
4CS
20 20 1 0 0 
SMALL
USER_CHARGES


@<TRIPOS>ATOM
  1 C       75.7069   -32.5626    39.1385 C.3   1 <1>   0.3295 
  2 H       76.6745   -32.3526    39.6013 H     1 <1>   0.0800 
  3 H       74.9453   -31.9268    39.5953 H     1 <1>   0.0800 
  4 N       75.7671   -32.3252    37.6831 N.pl3 1 <1>  -0.7939 
  5 H       75.5187   -31.3851    37.3390 H     1 <1>   0.4500 
  6 C       76.1002   -33.2266    36.7974 C.cat 1 <1>   0.6038 
  7 C       76.0667   -32.9236    35.3252 C.3   1 <1>  -0.1350 
  8 H       76.5444   -33.7428    34.8060 H     1 <1>   0.0800 
  9 H       76.6062   -32.0002    35.1729 H     1 <1>   0.0800 
 10 H       75.0263   -32.8377    35.0461 H     1 <1>   0.0800 
 11 N       76.4239   -34.4007    37.2358 N.pl3 1 <1>  -0.7939 
 12 H       76.5236   -35.2171    36.5894 H     1 <1>   0.4500 
 13 C       76.4373   -34.8302    38.6535 C.3   1 <1>   0.3035 
 14 H       77.3889   -34.6494    39.1338 H     1 <1>   0.0800 
 15 C       76.1308   -36.3370    38.7469 C.2   1 <1>   0.9060 
 16 O       75.9121   -36.9327    37.6625 O.co2 1 <1>  -0.9000 
 17 O       76.1314   -36.8569    39.8820 O.co2 1 <1>  -0.9000 
 18 C       75.3261   -34.0295    39.3467 C.3   1 <1>  -0.1600 
 19 H       74.3560   -34.2520    38.8994 H     1 <1>   0.0800 
 20 H       75.3047   -34.2733    40.4097 H     1 <1>   0.0800 
@<TRIPOS>BOND
  1   1   2  1   
  2   1   3  1   
  3   1   4  1   
  4   1  18  1   
  5   4   5  1   
  6   4   6  ar  
  7   6   7  1   
  8   6  11  ar  
  9   7   8  1   
 10   7   9  1   
 11   7  10  1   
 12  11  12  1   
 13  11  13  1   
 14  13  14  1   
 15  13  15  1   
 16  13  18  1   
 17  15  16  ar  
 18  15  17  ar  
 19  18  19  1   
 20  18  20  1   
@<TRIPOS>SUBSTRUCTURE
  1 ****  13 GROUP 4 **** **** 0

# MOE 2019.01 (io_trps.svl 2018.10)
