@<TRIPOS>MOLECULE
3DE
34 35 1 0 0 
SMALL
USER_CHARGES


@<TRIPOS>ATOM
  1 C       -9.5776    29.5409    11.2299 C.2   1 <1>   0.8060 
  2 O       -8.7860    29.9935    10.2345 O.3   1 <1>  -0.4300 
  3 C       -9.1607    29.8482     8.8411 C.3   1 <1>   0.1200 
  4 C       -8.0194    30.4976     8.0620 C.3   1 <1>  -0.2400 
  5 C       -9.1193    29.7326    12.6074 C.2   1 <1>  -0.0860 
  6 C       -7.9267    30.3236    12.9962 C.2   1 <1>   0.1520 
  7 N       -7.8969    30.3008    14.3170 N.2   1 <1>  -0.1930 
  8 C       -6.7810    30.9229    12.2021 C.3   1 <1>  -0.0590 
  9 C       -9.7893    29.3599    13.7676 C.2   1 <1>  -0.3316 
 10 C      -11.1351    28.6671    13.9407 C.3   1 <1>  -0.0600 
 11 N       -9.0292    29.7143    14.8011 N.pl3 1 <1>   0.5846 
 12 C       -9.2105    29.5803    16.2102 C.ar  1 <1>  -0.0230 
 13 C       -8.7588    28.4207    16.8402 C.ar  1 <1>  -0.1500 
 14 C       -8.9157    28.3100    18.2175 C.ar  1 <1>  -0.1500 
 15 C       -9.5167    29.3422    18.9388 C.ar  1 <1>  -0.1500 
 16 C       -9.9700    30.4912    18.2899 C.ar  1 <1>  -0.1500 
 17 C       -9.8214    30.6191    16.9131 C.ar  1 <1>  -0.1500 
 18 O      -10.6253    29.0012    10.9249 O.2   1 <1>  -0.5700 
 19 H       -9.2505    28.7924     8.5752 H     1 <1>   0.0800 
 20 H      -10.1013    30.3660     8.6396 H     1 <1>   0.0800 
 21 H       -8.2256    30.4302     6.9934 H     1 <1>   0.0800 
 22 H       -7.9303    31.5476     8.3422 H     1 <1>   0.0800 
 23 H       -7.0833    29.9818     8.2776 H     1 <1>   0.0800 
 24 H       -6.3777    30.1494    11.5465 H     1 <1>   0.0800 
 25 H       -7.1733    31.7474    11.6046 H     1 <1>   0.0800 
 26 H       -6.0033    31.2853    12.8751 H     1 <1>   0.0800 
 27 H      -11.4057    28.5895    14.9954 H     1 <1>   0.0800 
 28 H      -11.8919    29.2476    13.4091 H     1 <1>   0.0800 
 29 H      -11.0687    27.6704    13.4996 H     1 <1>   0.0800 
 30 H       -8.3089    27.6313    16.2909 H     1 <1>   0.1500 
 31 H       -8.5822    27.4386    18.7241 H     1 <1>   0.1500 
 32 H       -9.6343    29.2505    19.9898 H     1 <1>   0.1500 
 33 H      -10.4318    31.2651    18.8511 H     1 <1>   0.1500 
 34 H      -10.1744    31.4899    16.4188 H     1 <1>   0.1500 
@<TRIPOS>BOND
  1   1   2  1   
  2   1   5  1   
  3   1  18  2   
  4   2   3  1   
  5   3   4  1   
  6   3  19  1   
  7   3  20  1   
  8   4  21  1   
  9   4  22  1   
 10   4  23  1   
 11   5   6  1   
 12   5   9  2   
 13   6   7  2   
 14   6   8  1   
 15   7  11  1   
 16   8  24  1   
 17   8  25  1   
 18   8  26  1   
 19   9  10  1   
 20   9  11  1   
 21  10  27  1   
 22  10  28  1   
 23  10  29  1   
 24  11  12  1   
 25  12  13  ar  
 26  12  17  ar  
 27  13  14  ar  
 28  13  30  1   
 29  14  15  ar  
 30  14  31  1   
 31  15  16  ar  
 32  15  32  1   
 33  16  17  ar  
 34  16  33  1   
 35  17  34  1   
@<TRIPOS>SUBSTRUCTURE
  1 ****   9 GROUP 4 **** **** 0

# MOE 2019.01 (io_trps.svl 2018.10)
