@<TRIPOS>MOLECULE
11G
39 41 1 0 0 
SMALL
USER_CHARGES


@<TRIPOS>ATOM
  1 O      -77.1580   -39.1268     2.8373 O.2   1 <1>  -0.5700 
  2 C      -77.8988   -38.9268     1.8864 C.2   1 <1>   0.5690 
  3 N      -78.2792   -37.6230     1.5886 N.am  1 <1>  -0.4771 
  4 C      -77.8673   -36.4993     2.4603 C.3   1 <1>   0.0601 
  5 C      -79.0202   -37.3763     0.3710 C.ar  1 <1>   0.1170 
  6 C      -78.4381   -40.0878     1.0227 C.3   1 <1>   0.3501 
  7 C      -79.8320   -40.5158     1.5535 C.3   1 <1>  -0.1600 
  8 C      -79.6678   -41.2376     2.9031 C.3   1 <1>  -0.2400 
  9 N      -78.6607   -39.6777    -0.3997 N.pl3 1 <1>  -0.8382 
 10 C      -78.2236   -40.4911    -1.5555 C.3   1 <1>   0.2891 
 11 C      -78.6281   -41.9597    -1.4039 C.3   1 <1>  -0.1600 
 12 C      -77.7244   -42.6262    -2.4440 C.3   1 <1>  -0.1600 
 13 C      -76.4307   -41.7973    -2.4562 C.3   1 <1>  -0.1600 
 14 C      -76.6947   -40.5571    -1.5898 C.3   1 <1>  -0.1600 
 15 C      -79.1489   -38.3850    -0.6064 C.ar  1 <1>   0.4100 
 16 N      -79.7641   -38.1328    -1.7536 N.ar  1 <1>  -0.6200 
 17 C      -80.2807   -36.9216    -1.9492 C.ar  1 <1>   0.4700 
 18 N      -80.2175   -35.9338    -1.0581 N.ar  1 <1>  -0.6200 
 19 C      -79.5940   -36.1438     0.1031 C.ar  1 <1>   0.1600 
 20 H      -77.4178   -35.7441     1.8297 H     1 <1>   0.0800 
 21 H      -78.7560   -36.1294     2.9534 H     1 <1>   0.0800 
 22 H      -77.1460   -36.8365     3.1924 H     1 <1>   0.0800 
 23 H      -77.7451   -40.9134     1.0968 H     1 <1>   0.0800 
 24 H      -80.4794   -39.6452     1.6670 H     1 <1>   0.0800 
 25 H      -80.2940   -41.2000     0.8414 H     1 <1>   0.0800 
 26 H      -78.9958   -42.0908     2.7978 H     1 <1>   0.0800 
 27 H      -79.2724   -40.5583     3.6600 H     1 <1>   0.0800 
 28 H      -80.6406   -41.5984     3.2399 H     1 <1>   0.0800 
 29 H      -78.5918   -40.1175    -2.5032 H     1 <1>   0.0800 
 30 H      -78.3884   -42.3540    -0.4182 H     1 <1>   0.0800 
 31 H      -79.6844   -42.1047    -1.6303 H     1 <1>   0.0800 
 32 H      -77.5285   -43.6680    -2.1833 H     1 <1>   0.0800 
 33 H      -78.1992   -42.5753    -3.4265 H     1 <1>   0.0800 
 34 H      -75.5993   -42.3719    -2.0431 H     1 <1>   0.0800 
 35 H      -76.1944   -41.4986    -3.4797 H     1 <1>   0.0800 
 36 H      -76.2742   -39.6542    -2.0330 H     1 <1>   0.0800 
 37 H      -76.2819   -40.7143    -0.5941 H     1 <1>   0.0800 
 38 H      -80.7753   -36.7328    -2.8694 H     1 <1>   0.1500 
 39 H      -79.5493   -35.3485     0.8004 H     1 <1>   0.1500 
@<TRIPOS>BOND
  1   1   2  2   
  2   2   3  am  
  3   2   6  1   
  4   3   4  1   
  5   3   5  1   
  6   4  20  1   
  7   4  21  1   
  8   4  22  1   
  9   5  15  ar  
 10   5  19  ar  
 11   6   7  1   
 12   6   9  1   
 13   6  23  1   
 14   7   8  1   
 15   7  24  1   
 16   7  25  1   
 17   8  26  1   
 18   8  27  1   
 19   8  28  1   
 20   9  10  1   
 21   9  15  1   
 22  10  11  1   
 23  10  14  1   
 24  10  29  1   
 25  11  12  1   
 26  11  30  1   
 27  11  31  1   
 28  12  13  1   
 29  12  32  1   
 30  12  33  1   
 31  13  14  1   
 32  13  34  1   
 33  13  35  1   
 34  14  36  1   
 35  14  37  1   
 36  15  16  ar  
 37  16  17  ar  
 38  17  18  ar  
 39  17  38  1   
 40  18  19  ar  
 41  19  39  1   
@<TRIPOS>SUBSTRUCTURE
  1 ****   9 GROUP 4 **** **** 0

# MOE 2019.01 (io_trps.svl 2018.10)
