@<TRIPOS>MOLECULE
11X
26 27 1 0 0 
SMALL
USER_CHARGES


@<TRIPOS>ATOM
  1 N       64.1186    45.9335    -2.6091 N.ar  1 <1>  -0.6200 
  2 C       58.5303    47.0448    -0.0431 C.ar  1 <1>  -0.1500 
  3 C       57.1615    47.2893    -0.0647 C.ar  1 <1>  -0.1500 
  4 C       59.4214    48.0746    -0.3473 C.ar  1 <1>   0.1000 
  5 C       58.9444    49.3534    -0.6526 C.ar  1 <1>  -0.1500 
  6 C       56.6808    48.5585    -0.3818 C.ar  1 <1>  -0.1500 
  7 C       57.5738    49.5883    -0.6726 C.ar  1 <1>  -0.1500 
  8 C       63.0673    46.7455    -2.5013 C.ar  1 <1>   0.1600 
  9 C       63.7764    47.4785    -0.3299 C.ar  1 <1>  -0.1500 
 10 C       64.8636    46.6269    -0.4603 C.ar  1 <1>  -0.1500 
 11 C       65.0055    45.8673    -1.6173 C.ar  1 <1>   0.1600 
 12 C       61.6561    48.4506    -1.2946 C.3   1 <1>   0.3526 
 13 C       62.8613    47.5414    -1.3749 C.ar  1 <1>  -0.1435 
 14 N       60.7893    47.7905    -0.3281 N.pl3 1 <1>  -0.8691 
 15 H       58.8977    46.0834     0.2031 H     1 <1>   0.1500 
 16 H       56.4810    46.5092     0.1627 H     1 <1>   0.1500 
 17 H       59.6190    50.1417    -0.8562 H     1 <1>   0.1500 
 18 H       55.6368    48.7416    -0.3971 H     1 <1>   0.1500 
 19 H       57.2059    50.5548    -0.9048 H     1 <1>   0.1500 
 20 H       62.3800    46.7690    -3.3092 H     1 <1>   0.1500 
 21 H       63.6433    48.0624     0.5461 H     1 <1>   0.1500 
 22 H       65.5815    46.5524     0.3146 H     1 <1>   0.1500 
 23 H       65.8324    45.2126    -1.7309 H     1 <1>   0.1500 
 24 H       61.9585    49.4193    -0.9173 H     1 <1>   0.0800 
 25 H       61.1696    48.4998    -2.2611 H     1 <1>   0.0800 
 26 H       60.9983    46.7819    -0.2681 H     1 <1>   0.4000 
@<TRIPOS>BOND
  1   1   8  ar  
  2   1  11  ar  
  3   2   3  ar  
  4   2   4  ar  
  5   2  15  1   
  6   3   6  ar  
  7   3  16  1   
  8   4   5  ar  
  9   4  14  1   
 10   5   7  ar  
 11   5  17  1   
 12   6   7  ar  
 13   6  18  1   
 14   7  19  1   
 15   8  13  ar  
 16   8  20  1   
 17   9  10  ar  
 18   9  13  ar  
 19   9  21  1   
 20  10  11  ar  
 21  10  22  1   
 22  11  23  1   
 23  12  13  1   
 24  12  14  1   
 25  12  24  1   
 26  12  25  1   
 27  14  26  1   
@<TRIPOS>SUBSTRUCTURE
  1 ****  14 GROUP 4 **** **** 0

# MOE 2019.01 (io_trps.svl 2018.10)
