@<TRIPOS>MOLECULE
4QX
35 36 1 0 0 
SMALL
USER_CHARGES


@<TRIPOS>ATOM
  1 C       -4.8978     1.3115    -0.2072 C.3   1 <1>   0.2201 
  2 C       -5.3317     1.5985     1.2278 C.3   1 <1>  -0.2400 
  3 C       -2.5645     0.4658    -0.1941 C.2   1 <1>   0.6390 
  4 C        2.6591    -0.5032    -0.5775 C.ar  1 <1>  -0.1500 
  5 C        4.0379    -0.3392    -0.4965 C.ar  1 <1>  -0.1500 
  6 C        4.5719     0.8691    -0.0426 C.ar  1 <1>   0.1770 
  7 C        3.7249     1.9165     0.3277 C.ar  1 <1>  -0.1500 
  8 C        2.3456     1.7560     0.2492 C.ar  1 <1>  -0.1500 
  9 CL       6.2876     1.0707     0.0584 Cl    1 <1>  -0.1770 
 10 C        1.8147     0.5438    -0.1960 C.ar  1 <1>   0.1000 
 11 N        0.4090     0.4356    -0.2658 N.pl3 1 <1>  -0.5840 
 12 C       -0.3644    -0.7183    -0.0209 C.2   1 <1>   0.2705 
 13 N        0.0620    -1.9086     0.2216 N.2   1 <1>  -0.5653 
 14 C       -1.0845    -2.5891     0.3760 C.2   1 <1>   0.5990 
 15 N       -1.0712    -3.9144     0.6506 N.pl3 1 <1>  -0.8830 
 16 N       -2.1975    -1.9734     0.2468 N.2   1 <1>  -0.7068 
 17 N       -1.7329    -0.6981    -0.0046 N.pl3 1 <1>   0.5606 
 18 O       -2.0948     1.5912    -0.3872 O.2   1 <1>  -0.5700 
 19 N       -3.9179     0.2501    -0.1388 N.am  1 <1>  -0.7301 
 20 C       -6.0582     0.7733    -1.0393 C.3   1 <1>  -0.2400 
 21 H       -4.5109     2.2262    -0.6665 H     1 <1>   0.0800 
 22 H       -6.1028     2.3689     1.2292 H     1 <1>   0.0800 
 23 H       -5.7254     0.6957     1.6958 H     1 <1>   0.0800 
 24 H       -4.4767     1.9577     1.8016 H     1 <1>   0.0800 
 25 H        2.2534    -1.4138    -0.9326 H     1 <1>   0.1500 
 26 H        4.6888    -1.1254    -0.7785 H     1 <1>   0.1500 
 27 H        4.1416     2.8286     0.6681 H     1 <1>   0.1500 
 28 H        1.6992     2.5463     0.5311 H     1 <1>   0.1500 
 29 H       -0.1256     1.3232    -0.3555 H     1 <1>   0.4000 
 30 H       -0.2032    -4.3253     0.2926 H     1 <1>   0.4000 
 31 H       -1.9294    -4.3425     0.2911 H     1 <1>   0.4000 
 32 H       -4.2305    -0.7085     0.0854 H     1 <1>   0.3700 
 33 H       -6.8404     1.5296    -1.1060 H     1 <1>   0.0800 
 34 H       -5.7085     0.5410    -2.0458 H     1 <1>   0.0800 
 35 H       -6.4703    -0.1275    -0.5832 H     1 <1>   0.0800 
@<TRIPOS>BOND
  1   1   2  1   
  2   1  19  1   
  3   1  20  1   
  4   1  21  1   
  5   2  22  1   
  6   2  23  1   
  7   2  24  1   
  8   3  17  1   
  9   3  18  2   
 10   3  19  am  
 11   4   5  ar  
 12   4  10  ar  
 13   4  25  1   
 14   5   6  ar  
 15   5  26  1   
 16   6   7  ar  
 17   6   9  1   
 18   7   8  ar  
 19   7  27  1   
 20   8  10  ar  
 21   8  28  1   
 22  10  11  1   
 23  11  12  1   
 24  11  29  1   
 25  12  13  2   
 26  12  17  1   
 27  13  14  1   
 28  14  15  1   
 29  14  16  2   
 30  15  30  1   
 31  15  31  1   
 32  16  17  1   
 33  19  32  1   
 34  20  33  1   
 35  20  34  1   
 36  20  35  1   
@<TRIPOS>SUBSTRUCTURE
  1 ****  12 GROUP 4 **** **** 0

# MOE 2019.01 (io_trps.svl 2018.10)
