@<TRIPOS>MOLECULE
TTY
20 21 1 0 0 
SMALL
USER_CHARGES


@<TRIPOS>ATOM
  1 O        3.3042    -0.4236     0.7841 O.co2 1 <1>  -0.9000 
  2 C        2.3536     0.1482     0.1816 C.2   1 <1>   1.0330 
  3 O        2.5254     1.2463    -0.4067 O.co2 1 <1>  -0.9000 
  4 C        1.0731    -0.5410     0.0817 C.2   1 <1>  -0.2330 
  5 C       -0.2368    -0.0174    -0.0390 C.2   1 <1>  -0.0860 
  6 C       -0.7949     1.3159     0.0269 C.2   1 <1>   0.5950 
  7 O       -0.2773     2.2658     0.5684 O.2   1 <1>  -0.5700 
  8 C       -2.2154     1.4743    -0.4909 C.3   1 <1>  -0.0990 
  9 H       -2.1940     1.3961    -1.5685 H     1 <1>   0.0800 
 10 H       -2.6031     2.4224    -0.1457 H     1 <1>   0.0800 
 11 C       -3.0667     0.3118     0.1058 C.3   1 <1>  -0.1600 
 12 H       -4.1132     0.4418    -0.1718 H     1 <1>   0.0800 
 13 H       -2.9872     0.3221     1.1955 H     1 <1>   0.0800 
 14 C       -2.5558    -1.0456    -0.4415 C.3   1 <1>   0.0200 
 15 H       -2.7577    -1.1305    -1.5099 H     1 <1>   0.0800 
 16 H       -3.0302    -1.8725     0.0882 H     1 <1>   0.0800 
 17 C       -1.0624    -1.0821    -0.2141 C.2   1 <1>  -0.0400 
 18 O       -0.3626    -2.2236    -0.1722 O.3   1 <1>  -0.2800 
 19 C        0.9362    -1.8919     0.0197 C.2   1 <1>  -0.0100 
 20 H        1.6840    -2.6416     0.0810 H     1 <1>   0.1500 
@<TRIPOS>BOND
  1   1   2  ar  
  2   2   3  ar  
  3   2   4  1   
  4   4   5  1   
  5   4  19  2   
  6   5   6  1   
  7   5  17  2   
  8   6   7  2   
  9   6   8  1   
 10   8   9  1   
 11   8  10  1   
 12   8  11  1   
 13  11  12  1   
 14  11  13  1   
 15  11  14  1   
 16  14  15  1   
 17  14  16  1   
 18  14  17  1   
 19  17  18  1   
 20  18  19  1   
 21  19  20  1   
@<TRIPOS>SUBSTRUCTURE
  1 ****   5 GROUP 4 **** **** 0

# MOE 2019.01 (io_trps.svl 2018.10)
