@<TRIPOS>MOLECULE
46R
18 18 1 0 0 
SMALL
USER_CHARGES


@<TRIPOS>ATOM
  1 N        2.2932     1.1076    -0.0091 N.2   1 <1>  -0.4097 
  2 C        3.4248    -0.7800     0.0038 C.2   1 <1>  -0.1500 
  3 C        2.1582    -0.1956    -0.0011 C.2   1 <1>   0.2028 
  4 C       -1.6378    -0.8306    -0.0001 C.3   1 <1>   0.1401 
  5 C       -2.7994     0.2019     0.0009 C.3   1 <1>   1.0200 
  6 F       -2.7235     0.9795    -1.0937 F     1 <1>  -0.3400 
  7 F       -3.9732    -0.4488    -0.0007 F     1 <1>  -0.3400 
  8 F       -2.7248     0.9761     1.0981 F     1 <1>  -0.3400 
  9 N       -0.2822    -0.1836    -0.0007 N.am  1 <1>  -0.7301 
 10 C        0.8784    -0.9070     0.0020 C.2   1 <1>   0.7160 
 11 O        0.7672    -2.1295     0.0073 O.2   1 <1>  -0.5700 
 12 O        3.5975     1.3718    -0.0097 O.3   1 <1>  -0.0191 
 13 C        4.2977     0.2357    -0.0017 C.2   1 <1>  -0.0100 
 14 H        3.6491    -1.8153     0.0109 H     1 <1>   0.1500 
 15 H       -1.7432    -1.4586     0.8847 H     1 <1>   0.0800 
 16 H       -1.7441    -1.4581    -0.8852 H     1 <1>   0.0800 
 17 H       -0.1856     0.8467    -0.0074 H     1 <1>   0.3700 
 18 H        5.3578     0.2492    -0.0007 H     1 <1>   0.1500 
@<TRIPOS>BOND
  1   1   3  2   
  2   1  12  1   
  3   2   3  1   
  4   2  13  2   
  5   2  14  1   
  6   3  10  1   
  7   4   5  1   
  8   4   9  1   
  9   4  15  1   
 10   4  16  1   
 11   5   6  1   
 12   5   7  1   
 13   5   8  1   
 14   9  10  am  
 15   9  17  1   
 16  10  11  2   
 17  12  13  1   
 18  13  18  1   
@<TRIPOS>SUBSTRUCTURE
  1 ****   9 GROUP 4 **** **** 0

# MOE 2019.01 (io_trps.svl 2018.10)
