@<TRIPOS>MOLECULE
VK3
21 22 1 0 0 
SMALL
USER_CHARGES


@<TRIPOS>ATOM
  1 C        1.6746     0.0026     0.2766 C.2   1 <1>   0.4694 
  2 O        2.8646     0.0027    -0.0023 O.2   1 <1>  -0.5700 
  3 C        1.2828     0.0038     1.6639 C.2   1 <1>  -0.1356 
  4 C       -0.0249     0.0035     2.0368 C.2   1 <1>  -0.1238 
  5 C       -1.0706     0.0016     1.0264 C.2   1 <1>   0.4694 
  6 O       -2.2465     0.0008     1.3696 O.2   1 <1>  -0.5700 
  7 C       -0.7097     0.0008    -0.3884 C.ar  1 <1>   0.0862 
  8 C       -1.6940    -0.0002    -1.3897 C.ar  1 <1>  -0.1500 
  9 C       -1.3382    -0.0005    -2.7322 C.ar  1 <1>  -0.1500 
 10 C        0.0061     0.0003    -3.0984 C.ar  1 <1>  -0.1500 
 11 C        0.9929     0.0013    -2.1213 C.ar  1 <1>  -0.1500 
 12 C        0.6505     0.0015    -0.7602 C.ar  1 <1>   0.0862 
 13 C       -0.4221     0.0052     3.5045 C.3   1 <1>  -0.1018 
 14 H        2.0670     0.0051     2.3766 H     1 <1>   0.1500 
 15 H       -2.7201    -0.0008    -1.1175 H     1 <1>   0.1500 
 16 H       -2.0905    -0.0012    -3.4806 H     1 <1>   0.1500 
 17 H        0.2751     0.0003    -4.1249 H     1 <1>   0.1500 
 18 H        2.0157     0.0018    -2.4056 H     1 <1>   0.1500 
 19 H        0.4719     0.0060     4.1125 H     1 <1>   0.0800 
 20 H       -1.0108     0.8964     3.6771 H     1 <1>   0.0800 
 21 H       -1.0110    -0.8854     3.6791 H     1 <1>   0.0800 
@<TRIPOS>BOND
  1   1   2  2   
  2   1   3  1   
  3   1  12  1   
  4   3   4  2   
  5   3  14  1   
  6   4   5  1   
  7   4  13  1   
  8   5   6  2   
  9   5   7  1   
 10   7   8  ar  
 11   7  12  ar  
 12   8   9  ar  
 13   8  15  1   
 14   9  10  ar  
 15   9  16  1   
 16  10  11  ar  
 17  10  17  1   
 18  11  12  ar  
 19  11  18  1   
 20  13  19  1   
 21  13  20  1   
 22  13  21  1   
@<TRIPOS>SUBSTRUCTURE
  1 ****   7 GROUP 4 **** **** 0

# MOE 2019.01 (io_trps.svl 2018.10)
