@<TRIPOS>MOLECULE
X0U
22 24 1 0 0 
SMALL
USER_CHARGES


@<TRIPOS>ATOM
  1 N        2.1764    -1.3330    -0.1272 N.2   1 <1>  -0.5653 
  2 N        4.3897    -0.6756    -0.0979 N.pl3 1 <1>  -0.8840 
  3 C       -1.4826    -0.7391    -0.0462 C.ar  1 <1>   0.0825 
  4 C       -1.4755     0.6722     0.0395 C.ar  1 <1>   0.0825 
  5 C       -3.8810     0.6581    -0.3494 C.3   1 <1>   0.1200 
  6 C       -3.8844    -0.6964     0.3776 C.3   1 <1>   0.1200 
  7 C       -0.3004    -1.4555    -0.1125 C.ar  1 <1>  -0.1500 
  8 C        0.9216    -0.7621    -0.0757 C.ar  1 <1>   0.2272 
  9 C        0.9087     0.6333     0.0267 C.ar  1 <1>   0.0400 
 10 C       -0.2835     1.3708     0.0861 C.ar  1 <1>  -0.1500 
 11 C        3.0580    -0.3914    -0.0679 C.2   1 <1>   0.4621 
 12 O       -2.6916    -1.4138    -0.0583 O.3   1 <1>  -0.3625 
 13 O       -2.6734     1.3614     0.0705 O.3   1 <1>  -0.3625 
 14 S        2.5186     1.2456     0.0601 S.3   1 <1>  -0.0800 
 15 H        4.5857    -1.6557     0.1413 H     1 <1>   0.4000 
 16 H        4.9938     0.0345     0.3313 H     1 <1>   0.4000 
 17 H       -0.3111    -2.5106    -0.1847 H     1 <1>   0.1500 
 18 H       -0.2715     2.4268     0.1577 H     1 <1>   0.1500 
 19 H       -3.8632     0.4989    -1.4282 H     1 <1>   0.0800 
 20 H       -4.7622     1.2358    -0.0714 H     1 <1>   0.0800 
 21 H       -3.8510    -0.5381     1.4562 H     1 <1>   0.0800 
 22 H       -4.7759    -1.2639     0.1110 H     1 <1>   0.0800 
@<TRIPOS>BOND
  1   1   8  1   
  2   1  11  2   
  3   2  11  1   
  4   2  15  1   
  5   2  16  1   
  6   3   4  ar  
  7   3   7  ar  
  8   3  12  1   
  9   4  10  ar  
 10   4  13  1   
 11   5   6  1   
 12   5  13  1   
 13   5  19  1   
 14   5  20  1   
 15   6  12  1   
 16   6  21  1   
 17   6  22  1   
 18   7   8  ar  
 19   7  17  1   
 20   8   9  ar  
 21   9  10  ar  
 22   9  14  1   
 23  10  18  1   
 24  11  14  1   
@<TRIPOS>SUBSTRUCTURE
  1 ****   8 GROUP 4 **** **** 0

# MOE 2019.01 (io_trps.svl 2018.10)
