@<TRIPOS>MOLECULE
1AC
14 14 1 0 0 
SMALL
USER_CHARGES


@<TRIPOS>ATOM
  1 C        1.5101     0.9303    -0.0244 C.3   1 <1>  -0.2000 
  2 H        2.0497     1.4329     0.7660 H     1 <1>   0.1000 
  3 H        2.0751     0.2936    -0.6958 H     1 <1>   0.1000 
  4 C        0.3490     1.6900    -0.6455 C.3   1 <1>  -0.2000 
  5 H        0.1880     1.5287    -1.7054 H     1 <1>   0.1000 
  6 H        0.1492     2.6760    -0.2506 H     1 <1>   0.1000 
  7 C        0.0989     0.5116     0.2409 C.3   1 <1>   0.2490 
  8 C       -0.4492    -0.8049    -0.3506 C.2   1 <1>   0.9470 
  9 O       -1.2499    -1.3788     0.4375 O.co2 1 <1>  -0.9000 
 10 O       -0.1216    -1.2215    -1.4740 O.co2 1 <1>  -0.9000 
 11 N       -0.4382     0.7784     1.5692 N.4   1 <1>  -0.7460 
 12 H       -1.0198     1.6589     1.5211 H     1 <1>   0.4500 
 13 H        0.3594     0.7491     2.2613 H     1 <1>   0.4500 
 14 H       -1.0719    -0.1123     1.6556 H     1 <1>   0.4500 
@<TRIPOS>BOND
  1   1   2  1   
  2   1   3  1   
  3   1   4  1   
  4   1   7  1   
  5   4   5  1   
  6   4   6  1   
  7   4   7  1   
  8   7   8  1   
  9   7  11  1   
 10   8   9  ar  
 11   8  10  ar  
 12  11  12  1   
 13  11  13  1   
 14  11  14  1   
@<TRIPOS>SUBSTRUCTURE
  1 ****   7 GROUP 4 **** **** 0

# MOE 2019.01 (io_trps.svl 2018.10)
