@<TRIPOS>MOLECULE
ZZZ
23 24 1 0 0 
SMALL
USER_CHARGES


@<TRIPOS>ATOM
  1 C       -2.1856     1.4046    -0.8157 C.3   1 <1>   0.2091 
  2 N       -0.9269     1.7935    -0.1325 N.pl3 1 <1>  -0.8691 
  3 C        0.1125     0.8868    -0.1966 C.2   1 <1>   0.2710 
  4 N        1.3283     1.4244     0.0928 N.2   1 <1>  -0.6210 
  5 C        2.3370     0.6173     0.1086 C.2   1 <1>   0.5600 
  6 N        3.5677     1.0628     0.3860 N.pl3 1 <1>  -0.8500 
  7 C       -0.0778    -0.4511    -0.4959 C.2   1 <1>   0.1144 
  8 C        1.0681    -1.3050    -0.4298 C.2   1 <1>   0.6156 
  9 N        2.2615    -0.7139    -0.1358 N.am  1 <1>  -0.4900 
 10 O        1.1126    -2.5369    -0.5918 O.2   1 <1>  -0.5700 
 11 N       -1.4012    -0.9615    -0.8722 N.pl3 1 <1>  -0.8691 
 12 C       -2.5362    -0.0707    -0.4569 C.3   1 <1>   0.3501 
 13 C       -2.7678    -0.1290     1.0467 C.2   1 <1>   0.4490 
 14 O       -3.8490    -0.4063     1.4944 O.2   1 <1>  -0.5700 
 15 H       -2.0568     1.4792    -1.8970 H     1 <1>   0.0800 
 16 H       -3.0019     2.0586    -0.5044 H     1 <1>   0.0800 
 17 H       -0.5927     2.7628    -0.2513 H     1 <1>   0.4000 
 18 H        3.6004     2.0302     0.7328 H     1 <1>   0.4000 
 19 H        4.2794     0.4041     0.7149 H     1 <1>   0.4000 
 20 H        3.0947    -1.3034    -0.1404 H     1 <1>   0.3700 
 21 H       -1.5119    -1.9557    -0.6018 H     1 <1>   0.4000 
 22 H       -3.4464    -0.3586    -0.9653 H     1 <1>   0.0800 
 23 H       -1.9641     0.0963     1.7018 H     1 <1>   0.0600 
@<TRIPOS>BOND
  1   1   2  1   
  2   1  12  1   
  3   1  15  1   
  4   1  16  1   
  5   2   3  1   
  6   2  17  1   
  7   3   4  1   
  8   3   7  2   
  9   4   5  2   
 10   5   6  1   
 11   5   9  1   
 12   6  18  1   
 13   6  19  1   
 14   7   8  1   
 15   7  11  1   
 16   8   9  am  
 17   8  10  2   
 18   9  20  1   
 19  11  12  1   
 20  11  21  1   
 21  12  13  1   
 22  12  22  1   
 23  13  14  2   
 24  13  23  1   
@<TRIPOS>SUBSTRUCTURE
  1 ****   7 GROUP 4 **** **** 0

# MOE 2019.01 (io_trps.svl 2018.10)
