@<TRIPOS>MOLECULE
20N
30 31 1 0 0 
SMALL
USER_CHARGES


@<TRIPOS>ATOM
  1 C      -60.6279   100.3638    -0.5666 C.3   1 <1>  -0.1790 
  2 C      -62.0076    99.7664    -0.5821 C.2   1 <1>   0.5690 
  3 O      -62.2262    98.6611    -1.0242 O.2   1 <1>  -0.5700 
  4 N      -63.0082   100.5552    -0.0833 N.am  1 <1>  -0.5470 
  5 C      -64.3890   100.2452     0.0313 C.ar  1 <1>   0.1170 
  6 C      -64.8523    98.9382     0.2200 C.ar  1 <1>  -0.1500 
  7 C      -66.2176    98.7038     0.3428 C.ar  1 <1>  -0.1500 
  8 C      -67.1134    99.7740     0.2830 C.ar  1 <1>   0.1170 
  9 C      -66.6488   101.0826     0.1097 C.ar  1 <1>  -0.1500 
 10 C      -65.2841   101.3161    -0.0191 C.ar  1 <1>  -0.1500 
 11 N      -68.4911    99.4715     0.4404 N.am  1 <1>  -0.5470 
 12 C      -69.5681   100.1507    -0.0601 C.2   1 <1>   0.6300 
 13 O      -69.4309   101.1237    -0.7721 O.2   1 <1>  -0.5700 
 14 C      -70.9248    99.5834     0.3230 C.3   1 <1>  -0.1000 
 15 C      -72.0399    99.7366    -0.6741 C.3   1 <1>  -0.2000 
 16 C      -71.3848    98.3904    -0.4686 C.3   1 <1>  -0.2000 
 17 H      -60.6626   101.2599    -1.1686 H     1 <1>   0.0800 
 18 H      -60.3885   100.5825     0.4637 H     1 <1>   0.0800 
 19 H      -59.9592    99.6252    -0.9862 H     1 <1>   0.0800 
 20 H      -62.7266   101.5004     0.1973 H     1 <1>   0.3700 
 21 H      -64.1717    98.1291     0.2738 H     1 <1>   0.1500 
 22 H      -66.5740    97.7162     0.4774 H     1 <1>   0.1500 
 23 H      -67.3266   101.8951     0.0803 H     1 <1>   0.1500 
 24 H      -64.9280   102.3031    -0.1588 H     1 <1>   0.1500 
 25 H      -68.7211    98.6126     0.9503 H     1 <1>   0.3700 
 26 H      -71.1577    99.6242     1.3776 H     1 <1>   0.1000 
 27 H      -73.0354    99.8617    -0.2690 H     1 <1>   0.1000 
 28 H      -71.8053   100.2575    -1.5947 H     1 <1>   0.1000 
 29 H      -70.7390    98.0478    -1.2678 H     1 <1>   0.1000 
 30 H      -71.9696    97.6488     0.0599 H     1 <1>   0.1000 
@<TRIPOS>BOND
  1   1   2  1   
  2   1  17  1   
  3   1  18  1   
  4   1  19  1   
  5   2   3  2   
  6   2   4  am  
  7   4   5  1   
  8   4  20  1   
  9   5   6  ar  
 10   5  10  ar  
 11   6   7  ar  
 12   6  21  1   
 13   7   8  ar  
 14   7  22  1   
 15   8   9  ar  
 16   8  11  1   
 17   9  10  ar  
 18   9  23  1   
 19  10  24  1   
 20  11  12  am  
 21  11  25  1   
 22  12  13  2   
 23  12  14  1   
 24  14  15  1   
 25  14  16  1   
 26  14  26  1   
 27  15  16  1   
 28  15  27  1   
 29  15  28  1   
 30  16  29  1   
 31  16  30  1   
@<TRIPOS>SUBSTRUCTURE
  1 ****   8 GROUP 4 **** **** 0

# MOE 2019.01 (io_trps.svl 2018.10)
