@<TRIPOS>MOLECULE
3WA
18 19 1 0 0 
SMALL
USER_CHARGES


@<TRIPOS>ATOM
  1 C        0.0038     0.2761     0.0058 C.ar  1 <1>   0.0862 
  2 C        0.0709    -1.1111    -0.0018 C.ar  1 <1>   0.4100 
  3 C        1.2257     1.0330     0.0308 C.2   1 <1>   0.4694 
  4 N       -1.0027    -1.8996     0.0071 N.ar  1 <1>  -0.6200 
  5 C        2.4599     0.3075     0.0067 C.2   1 <1>  -0.1356 
  6 C        2.4784    -1.0559    -0.0171 C.2   1 <1>  -0.0500 
  7 C       -2.1890    -1.3048     0.0187 C.ar  1 <1>   0.4700 
  8 C       -1.2962     0.7973    -0.0010 C.ar  1 <1>   0.4100 
  9 N        1.2827    -1.7547    -0.0168 N.pl3 1 <1>  -0.6000 
 10 O        1.2424     2.2710     0.0856 O.2   1 <1>  -0.5700 
 11 N       -2.3654     0.0213     0.0161 N.ar  1 <1>  -0.6200 
 12 N       -1.5731     2.1208    -0.0321 N.pl3 1 <1>  -0.9000 
 13 H        3.3584     0.8665     0.0110 H     1 <1>   0.1500 
 14 H        3.3615    -1.6482    -0.0344 H     1 <1>   0.1500 
 15 H       -3.0556    -1.9191     0.0293 H     1 <1>   0.1500 
 16 H        1.2524    -2.7884    -0.0291 H     1 <1>   0.4000 
 17 H       -0.7847     2.7797     0.1109 H     1 <1>   0.4000 
 18 H       -2.5329     2.4073     0.1964 H     1 <1>   0.4000 
@<TRIPOS>BOND
  1   1   2  ar  
  2   1   3  1   
  3   1   8  ar  
  4   2   4  ar  
  5   2   9  1   
  6   3   5  1   
  7   3  10  2   
  8   4   7  ar  
  9   5   6  2   
 10   5  13  1   
 11   6   9  1   
 12   6  14  1   
 13   7  11  ar  
 14   7  15  1   
 15   8  11  ar  
 16   8  12  1   
 17   9  16  1   
 18  12  17  1   
 19  12  18  1   
@<TRIPOS>SUBSTRUCTURE
  1 ****   1 GROUP 4 **** **** 0

# MOE 2019.01 (io_trps.svl 2018.10)
