@<TRIPOS>MOLECULE
NCT
27 28 1 0 0 
SMALL
USER_CHARGES


@<TRIPOS>ATOM
  1 N       -1.0791     1.1494    -2.3856 N.ar  1 <1>  -0.6200 
  2 C       -0.8384     0.7888    -1.1317 C.ar  1 <1>   0.1600 
  3 H       -1.3188     1.3509    -0.3711 H     1 <1>   0.1500 
  4 C        0.0090    -0.2771    -0.8159 C.ar  1 <1>  -0.1435 
  5 C        0.6064    -0.9837    -1.8557 C.ar  1 <1>  -0.1500 
  6 H        1.2553    -1.8029    -1.6714 H     1 <1>   0.1500 
  7 C        0.3338    -0.5933    -3.1590 C.ar  1 <1>  -0.1500 
  8 H        0.7677    -1.1086    -3.9774 H     1 <1>   0.1500 
  9 C       -0.5158     0.4828    -3.3911 C.ar  1 <1>   0.1600 
 10 H       -0.7327     0.7938    -4.3828 H     1 <1>   0.1500 
 11 C        0.0404     0.9069     2.4027 C.3   1 <1>   0.3430 
 12 H       -0.7129     1.6132     2.0700 H     1 <1>   0.0800 
 13 H        0.6173     1.2761     3.2438 H     1 <1>   0.0800 
 14 N        0.8991     0.5201     1.2615 N.4   1 <1>  -0.9590 
 15 H        0.9700     1.2674     0.5772 H     1 <1>   0.4500 
 16 C        2.2422     0.1555     1.7688 C.3   1 <1>   0.2630 
 17 H        2.1399    -0.6622     2.4735 H     1 <1>   0.0800 
 18 H        2.6698     1.0254     2.2552 H     1 <1>   0.0800 
 19 H        2.8560    -0.1406     0.9250 H     1 <1>   0.0800 
 20 C        0.3065    -0.6628     0.6181 C.3   1 <1>   0.5665 
 21 H        0.9712    -1.5190     0.6517 H     1 <1>   0.0800 
 22 C       -0.9808    -0.9701     1.3937 C.3   1 <1>  -0.1600 
 23 H       -1.1672    -2.0443     1.4364 H     1 <1>   0.0800 
 24 H       -1.8506    -0.4643     0.9723 H     1 <1>   0.0800 
 25 C       -0.6629    -0.3988     2.7712 C.3   1 <1>  -0.1600 
 26 H        0.0101    -1.0591     3.3218 H     1 <1>   0.0800 
 27 H       -1.5695    -0.2161     3.3515 H     1 <1>   0.0800 
@<TRIPOS>BOND
  1   1   2  ar  
  2   1   9  ar  
  3   2   3  1   
  4   2   4  ar  
  5   4   5  ar  
  6   4  20  1   
  7   5   6  1   
  8   5   7  ar  
  9   7   8  1   
 10   7   9  ar  
 11   9  10  1   
 12  11  12  1   
 13  11  13  1   
 14  11  14  1   
 15  11  25  1   
 16  14  15  1   
 17  14  16  1   
 18  14  20  1   
 19  16  17  1   
 20  16  18  1   
 21  16  19  1   
 22  20  21  1   
 23  20  22  1   
 24  22  23  1   
 25  22  24  1   
 26  22  25  1   
 27  25  26  1   
 28  25  27  1   
@<TRIPOS>SUBSTRUCTURE
  1 ****   4 GROUP 4 **** **** 0

# MOE 2019.01 (io_trps.svl 2018.10)
