@<TRIPOS>MOLECULE
2CQ
19 19 1 0 0 
SMALL
USER_CHARGES


@<TRIPOS>ATOM
  1 N       61.8164    35.5180     0.0982 N.pl3 1 <1>  -0.9000 
  2 C       60.4766    35.9404     0.0678 C.ar  1 <1>   0.1000 
  3 C       59.4540    34.9992     0.0091 C.ar  1 <1>  -0.1500 
  4 C       58.1185    35.4106     0.0359 C.ar  1 <1>  -0.1435 
  5 C       57.0077    34.3780    -0.0257 C.3   1 <1>  -0.0965 
  6 C       57.8235    36.7821     0.1235 C.ar  1 <1>   0.1770 
  7 CL      56.1805    37.3383     0.1740 Cl    1 <1>  -0.1770 
  8 C       58.8478    37.7309     0.1680 C.ar  1 <1>  -0.1500 
  9 C       60.1709    37.3119     0.1248 C.ar  1 <1>   0.1000 
 10 N       61.2045    38.2585     0.1115 N.pl3 1 <1>  -0.9000 
 11 H       62.3747    36.1860     0.6525 H     1 <1>   0.4000 
 12 H       61.9115    34.5585     0.4578 H     1 <1>   0.4000 
 13 H       59.6981    33.9712    -0.0539 H     1 <1>   0.1500 
 14 H       56.4157    34.4561     0.8868 H     1 <1>   0.0800 
 15 H       56.3917    34.5879    -0.9009 H     1 <1>   0.0800 
 16 H       57.4390    33.3803    -0.1060 H     1 <1>   0.0800 
 17 H       58.6123    38.7596     0.2310 H     1 <1>   0.1500 
 18 H       62.0119    37.8934    -0.4181 H     1 <1>   0.4000 
 19 H       60.8989    39.1776    -0.2371 H     1 <1>   0.4000 
@<TRIPOS>BOND
  1   1   2  1   
  2   1  11  1   
  3   1  12  1   
  4   2   3  ar  
  5   2   9  ar  
  6   3   4  ar  
  7   3  13  1   
  8   4   5  1   
  9   4   6  ar  
 10   5  14  1   
 11   5  15  1   
 12   5  16  1   
 13   6   7  1   
 14   6   8  ar  
 15   8   9  ar  
 16   8  17  1   
 17   9  10  1   
 18  10  18  1   
 19  10  19  1   
@<TRIPOS>SUBSTRUCTURE
  1 ****   6 GROUP 4 **** **** 0

# MOE 2019.01 (io_trps.svl 2018.10)
