@<TRIPOS>MOLECULE
57D
29 31 1 0 0 
SMALL
USER_CHARGES


@<TRIPOS>ATOM
  1 C       -1.2016    -0.3005    -0.1011 C.2   1 <1>   0.0483 
  2 C       -0.6668    -1.5593    -0.1326 C.2   1 <1>  -0.1356 
  3 C        0.7462    -1.7738    -0.1773 C.2   1 <1>   0.4694 
  4 C        1.6152    -0.6209    -0.1858 C.ar  1 <1>   0.0862 
  5 C        3.0235    -0.6931    -0.2249 C.ar  1 <1>   0.0825 
  6 C        3.8117     0.4509    -0.2301 C.ar  1 <1>  -0.1500 
  7 C        3.1842     1.6978    -0.1960 C.ar  1 <1>   0.0825 
  8 C        1.7991     1.8170    -0.1573 C.ar  1 <1>  -0.1500 
  9 C        1.0325     0.6543    -0.1526 C.ar  1 <1>   0.0825 
 10 O       -0.3364     0.7690    -0.1135 O.3   1 <1>  -0.1592 
 11 O        1.1950    -2.9237    -0.2068 O.2   1 <1>  -0.5700 
 12 O        3.6515    -1.9007    -0.2585 O.3   1 <1>  -0.5325 
 13 O        3.9329     2.8256    -0.2003 O.3   1 <1>  -0.5325 
 14 C       -3.0399     1.3871     0.0074 C.ar  1 <1>  -0.1500 
 15 C       -4.3885     1.7208     0.0549 C.ar  1 <1>  -0.1500 
 16 C       -5.3556     0.7225     0.0429 C.ar  1 <1>  -0.1500 
 17 C       -4.9701    -0.6117    -0.0176 C.ar  1 <1>  -0.1500 
 18 C       -3.6220    -0.9488    -0.0658 C.ar  1 <1>  -0.1500 
 19 C       -2.6276     0.0446    -0.0533 C.ar  1 <1>   0.0284 
 20 H       -1.2733    -2.4239    -0.1239 H     1 <1>   0.1500 
 21 H        4.8666     0.3671    -0.2594 H     1 <1>   0.1500 
 22 H        1.3412     2.7717    -0.1318 H     1 <1>   0.1500 
 23 H        2.9590    -2.6135    -0.2500 H     1 <1>   0.4500 
 24 H        4.8860     2.6141    -0.2288 H     1 <1>   0.4500 
 25 H       -2.3212     2.1651     0.0181 H     1 <1>   0.1500 
 26 H       -4.6805     2.7390     0.1006 H     1 <1>   0.1500 
 27 H       -6.3840     0.9780     0.0797 H     1 <1>   0.1500 
 28 H       -5.7079    -1.3733    -0.0271 H     1 <1>   0.1500 
 29 H       -3.3588    -1.9717    -0.1128 H     1 <1>   0.1500 
@<TRIPOS>BOND
  1   1   2  2   
  2   1  10  1   
  3   1  19  1   
  4   2   3  1   
  5   2  20  1   
  6   3   4  1   
  7   3  11  2   
  8   4   5  ar  
  9   4   9  ar  
 10   5   6  ar  
 11   5  12  1   
 12   6   7  ar  
 13   6  21  1   
 14   7   8  ar  
 15   7  13  1   
 16   8   9  ar  
 17   8  22  1   
 18   9  10  1   
 19  12  23  1   
 20  13  24  1   
 21  14  15  ar  
 22  14  19  ar  
 23  14  25  1   
 24  15  16  ar  
 25  15  26  1   
 26  16  17  ar  
 27  16  27  1   
 28  17  18  ar  
 29  17  28  1   
 30  18  19  ar  
 31  18  29  1   
@<TRIPOS>SUBSTRUCTURE
  1 ****  10 GROUP 4 **** **** 0

# MOE 2019.01 (io_trps.svl 2018.10)
