@<TRIPOS>MOLECULE
0CT
14 15 1 0 0 
SMALL
USER_CHARGES


@<TRIPOS>ATOM
  1 N       -1.5258     1.0243     0.0030 N.pl3 1 <1>   0.2996 
  2 C       -0.2220     0.6736     0.0017 C.ar  1 <1>  -0.1516 
  3 C        0.9644     1.4230     0.0052 C.ar  1 <1>  -0.1500 
  4 C        2.1580     0.7213     0.0031 C.ar  1 <1>  -0.1500 
  5 C        2.1583    -0.6945    -0.0027 C.ar  1 <1>  -0.1500 
  6 C        0.9646    -1.4024    -0.0063 C.ar  1 <1>  -0.1500 
  7 C       -0.2492    -0.6958    -0.0038 C.ar  1 <1>   0.2272 
  8 N       -1.5501    -1.1284    -0.0057 N.2   1 <1>  -0.2272 
  9 N       -2.3147    -0.0711    -0.0014 N.2   1 <1>  -0.4180 
 10 H       -1.8971     1.9889     0.0069 H     1 <1>   0.2700 
 11 H        0.9480     2.4832     0.0094 H     1 <1>   0.1500 
 12 H        3.0816     1.2425     0.0058 H     1 <1>   0.1500 
 13 H        3.0822    -1.2149    -0.0044 H     1 <1>   0.1500 
 14 H        0.9553    -2.4610    -0.0108 H     1 <1>   0.1500 
@<TRIPOS>BOND
  1   1   2  1   
  2   1   9  1   
  3   1  10  1   
  4   2   3  ar  
  5   2   7  ar  
  6   3   4  ar  
  7   3  11  1   
  8   4   5  ar  
  9   4  12  1   
 10   5   6  ar  
 11   5  13  1   
 12   6   7  ar  
 13   6  14  1   
 14   7   8  1   
 15   8   9  2   
@<TRIPOS>SUBSTRUCTURE
  1 ****   7 GROUP 4 **** **** 0

# MOE 2019.01 (io_trps.svl 2018.10)
