@<TRIPOS>MOLECULE
YCP
20 20 1 0 0 
SMALL
USER_CHARGES


@<TRIPOS>ATOM
  1 C        1.7959    -0.2375     0.0545 C.2   1 <1>   0.9060 
  2 N       -0.2762     1.2030     0.0466 N.4   1 <1>  -0.9060 
  3 H1       0.3214     1.8957     0.4811 H     1 <1>   0.4500 
  4 H2      -0.0529     1.2971    -0.9397 H     1 <1>   0.4500 
  5 O        2.1995     0.6755    -0.7045 O.co2 1 <1>  -0.9000 
  6 C        0.2903    -0.1356     0.4163 C.3   1 <1>   0.3170 
  7 H        0.2262    -0.2809     1.4946 H     1 <1>   0.0800 
  8 C       -0.5261    -1.2462    -0.2686 C.3   1 <1>  -0.1600 
  9 H1      -0.3567    -1.1969    -1.3461 H     1 <1>   0.0800 
 10 H2      -0.1624    -2.2144     0.0825 H     1 <1>   0.0800 
 11 C       -2.5276     0.2818    -0.3570 C.3   1 <1>  -0.1600 
 12 H1      -3.5775     0.3836    -0.0779 H     1 <1>   0.0800 
 13 H2      -2.4438     0.4162    -1.4369 H     1 <1>   0.0800 
 14 C       -1.7099     1.3648     0.3516 C.3   1 <1>   0.3430 
 15 H1      -1.8718     1.2773     1.4291 H     1 <1>   0.0800 
 16 H2      -2.0590     2.3485     0.0267 H     1 <1>   0.0800 
 17 C       -2.0308    -1.1224     0.0241 C.3   1 <1>  -0.1600 
 18 H1      -2.5771    -1.8754    -0.5483 H     1 <1>   0.0800 
 19 H2      -2.2095    -1.3009     1.0869 H     1 <1>   0.0800 
 20 O        2.4639    -1.1533     0.5697 O.co2 1 <1>  -0.9000 
@<TRIPOS>BOND
  1   1   5  ar  
  2   1   6  1   
  3   1  20  ar  
  4   2   3  1   
  5   2   4  1   
  6   2   6  1   
  7   2  14  1   
  8   6   7  1   
  9   6   8  1   
 10   8   9  1   
 11   8  10  1   
 12   8  17  1   
 13  11  12  1   
 14  11  13  1   
 15  11  14  1   
 16  11  17  1   
 17  14  15  1   
 18  14  16  1   
 19  17  18  1   
 20  17  19  1   
@<TRIPOS>SUBSTRUCTURE
  1 ****   6 GROUP 4 **** **** 0

# MOE 2019.01 (io_trps.svl 2018.10)
