@<TRIPOS>MOLECULE
B40
27 27 1 0 0 
SMALL
USER_CHARGES


@<TRIPOS>ATOM
  1 N       39.5185    -1.5509   -15.6079 N.4   1 <1>  -0.9060 
  2 C       39.5596    -2.2170   -16.9270 C.3   1 <1>   0.4230 
  3 C       38.1543    -2.3942   -17.5031 C.3   1 <1>  -0.2400 
  4 C       40.4393    -1.4035   -17.8856 C.3   1 <1>  -0.0165 
  5 C       41.7574    -1.0082   -17.2472 C.ar  1 <1>  -0.1435 
  6 C       42.7338    -1.9900   -16.9881 C.ar  1 <1>  -0.1500 
  7 C       41.9837     0.3255   -16.8519 C.ar  1 <1>  -0.1500 
  8 C       43.9250    -1.6408   -16.3291 C.ar  1 <1>  -0.1500 
  9 C       43.1762     0.6709   -16.1931 C.ar  1 <1>  -0.1500 
 10 C       44.1443    -0.3123   -15.9277 C.ar  1 <1>  -0.1500 
 11 C       38.8743    -2.3531   -14.5340 C.3   1 <1>   0.2630 
 12 H       39.0626    -0.6539   -15.7068 H     1 <1>   0.4500 
 13 H       40.4888    -1.3587   -15.3598 H     1 <1>   0.4500 
 14 H       40.0232    -3.2022   -16.8191 H     1 <1>   0.0800 
 15 H       38.2210    -2.8339   -18.4997 H     1 <1>   0.0800 
 16 H       37.5659    -3.0672   -16.8800 H     1 <1>   0.0800 
 17 H       37.6458    -1.4320   -17.5781 H     1 <1>   0.0800 
 18 H       40.6410    -1.9969   -18.7790 H     1 <1>   0.0800 
 19 H       39.9073    -0.5042   -18.1996 H     1 <1>   0.0800 
 20 H       42.5872    -3.0144   -17.3029 H     1 <1>   0.1500 
 21 H       41.2568     1.0985   -17.0623 H     1 <1>   0.1500 
 22 H       44.6819    -2.3909   -16.1410 H     1 <1>   0.1500 
 23 H       43.3586     1.6967   -15.9012 H     1 <1>   0.1500 
 24 H       45.0671    -0.0427   -15.4313 H     1 <1>   0.1500 
 25 H       37.8257    -2.5484   -14.7730 H     1 <1>   0.0800 
 26 H       39.3880    -3.3104   -14.4104 H     1 <1>   0.0800 
 27 H       38.9146    -1.8161   -13.5823 H     1 <1>   0.0800 
@<TRIPOS>BOND
  1   1   2  1   
  2   1  11  1   
  3   1  12  1   
  4   1  13  1   
  5   2   3  1   
  6   2   4  1   
  7   2  14  1   
  8   3  15  1   
  9   3  16  1   
 10   3  17  1   
 11   4   5  1   
 12   4  18  1   
 13   4  19  1   
 14   5   6  ar  
 15   5   7  ar  
 16   6   8  ar  
 17   6  20  1   
 18   7   9  ar  
 19   7  21  1   
 20   8  10  ar  
 21   8  22  1   
 22   9  10  ar  
 23   9  23  1   
 24  10  24  1   
 25  11  25  1   
 26  11  26  1   
 27  11  27  1   
@<TRIPOS>SUBSTRUCTURE
  1 ****   5 GROUP 4 **** **** 0

# MOE 2019.01 (io_trps.svl 2018.10)
