@<TRIPOS>MOLECULE
28S
25 26 1 0 0 
SMALL
USER_CHARGES


@<TRIPOS>ATOM
  1 C        1.7652     0.0728     0.2123 C.ar  1 <1>   0.1110 
  2 N       -2.7577     1.6308    -0.3260 N.ar  1 <1>  -0.6200 
  3 BR       3.0402    -1.3181     0.3431 Br    1 <1>  -0.1110 
  4 C        2.1884     1.4141     0.2917 C.ar  1 <1>  -0.1500 
  5 N       -1.0058     3.1752    -0.0893 N.ar  1 <1>  -0.6200 
  6 C        1.2698     2.4390     0.1939 C.ar  1 <1>  -0.1500 
  7 N       -2.4572    -0.6340    -0.2953 N.pl3 1 <1>  -0.8691 
  8 C       -0.0986     2.1553     0.0158 C.ar  1 <1>   0.3100 
  9 C       -0.5276     0.8215    -0.0561 C.ar  1 <1>  -0.0000 
 10 C        0.4283    -0.2214     0.0393 C.ar  1 <1>  -0.1500 
 11 C       -1.9288     0.6277    -0.2280 C.ar  1 <1>   0.4100 
 12 C       -2.2648     2.8914    -0.2543 C.ar  1 <1>   0.4700 
 13 C       -3.8836    -0.8825    -0.2649 C.3   1 <1>   0.3473 
 14 C       -3.9405    -2.3807    -0.4354 C.2   1 <1>  -0.2882 
 15 C       -4.2201    -3.2317     0.5640 C.2   1 <1>  -0.3000 
 16 H        3.2177     1.6299     0.4255 H     1 <1>   0.1500 
 17 H        1.5779     3.4508     0.2500 H     1 <1>   0.1500 
 18 H       -1.8716    -1.4245    -0.0044 H     1 <1>   0.4000 
 19 H        0.1175    -1.2310    -0.0264 H     1 <1>   0.1500 
 20 H       -2.9560     3.6929    -0.3369 H     1 <1>   0.1500 
 21 H       -4.2893    -0.5976     0.6980 H     1 <1>   0.0800 
 22 H       -4.3716    -0.3967    -1.1011 H     1 <1>   0.0800 
 23 H       -3.7316    -2.7283    -1.4154 H     1 <1>   0.1500 
 24 H       -4.4252    -2.9028     1.5514 H     1 <1>   0.1500 
 25 H       -4.2503    -4.2819     0.4190 H     1 <1>   0.1500 
@<TRIPOS>BOND
  1   1   3  1   
  2   1   4  ar  
  3   1  10  ar  
  4   2  11  ar  
  5   2  12  ar  
  6   4   6  ar  
  7   4  16  1   
  8   5   8  ar  
  9   5  12  ar  
 10   6   8  ar  
 11   6  17  1   
 12   7  11  1   
 13   7  13  1   
 14   7  18  1   
 15   8   9  ar  
 16   9  10  ar  
 17   9  11  ar  
 18  10  19  1   
 19  12  20  1   
 20  13  14  1   
 21  13  21  1   
 22  13  22  1   
 23  14  15  2   
 24  14  23  1   
 25  15  24  1   
 26  15  25  1   
@<TRIPOS>SUBSTRUCTURE
  1 ****   9 GROUP 4 **** **** 0

# MOE 2019.01 (io_trps.svl 2018.10)
