@<TRIPOS>MOLECULE
F60
17 18 1 0 0 
SMALL
USER_CHARGES


@<TRIPOS>ATOM
  1 O       -3.0768     0.6530     0.1778 O.3   1 <1>  -0.5325 
  2 C       -1.7915     0.2022     0.1800 C.ar  1 <1>   0.0825 
  3 C       -0.7781     1.0746    -0.1714 C.ar  1 <1>  -0.1500 
  4 C        0.5288     0.5694    -0.1564 C.ar  1 <1>  -0.1516 
  5 C        0.8242    -0.7458     0.1922 C.ar  1 <1>   0.0000 
  6 C        2.2264    -0.8983     0.0956 C.2   1 <1>  -0.1500 
  7 C        2.7573     0.2887    -0.2986 C.2   1 <1>  -0.3016 
  8 N        1.7264     1.1921    -0.4551 N.pl3 1 <1>   0.0332 
  9 C       -0.2264    -1.6141     0.5467 C.ar  1 <1>  -0.1500 
 10 C       -1.5300    -1.1404     0.5403 C.ar  1 <1>  -0.1500 
 11 H       -3.6852    -0.0614     0.4422 H     1 <1>   0.4500 
 12 H       -0.9872     2.0772    -0.4387 H     1 <1>   0.1500 
 13 H        2.7702    -1.7852     0.2960 H     1 <1>   0.1500 
 14 H        3.7677     0.5552    -0.4762 H     1 <1>   0.1500 
 15 H        1.8231     2.1778    -0.7480 H     1 <1>   0.2700 
 16 H       -0.0143    -2.6165     0.8140 H     1 <1>   0.1500 
 17 H       -2.3282    -1.7829     0.8045 H     1 <1>   0.1500 
@<TRIPOS>BOND
  1   1   2  1   
  2   1  11  1   
  3   2   3  ar  
  4   2  10  ar  
  5   3   4  ar  
  6   3  12  1   
  7   4   5  ar  
  8   4   8  1   
  9   5   6  1   
 10   5   9  ar  
 11   6   7  2   
 12   6  13  1   
 13   7   8  1   
 14   7  14  1   
 15   8  15  1   
 16   9  10  ar  
 17   9  16  1   
 18  10  17  1   
@<TRIPOS>SUBSTRUCTURE
  1 ****   4 GROUP 4 **** **** 0

# MOE 2019.01 (io_trps.svl 2018.10)
