@<TRIPOS>MOLECULE
YES
34 33 1 0 0 
SMALL
USER_CHARGES


@<TRIPOS>ATOM
  1 O        1.4844    -1.9751     1.6291 O.3   1 <1>  -0.6800 
  2 C        1.7723    -1.6237     0.2810 C.3   1 <1>   0.1200 
  3 C        1.2038    -0.2306    -0.1143 C.3   1 <1>   0.0000 
  4 C        2.0078     0.8192     0.7007 C.3   1 <1>   0.1200 
  5 O        3.4176     0.7073     0.5260 O.3   1 <1>  -0.6800 
  6 C        1.5352    -0.0549    -1.6197 C.3   1 <1>   0.1200 
  7 O        1.1386     1.2002    -2.1506 O.3   1 <1>  -0.6800 
  8 C       -0.3389    -0.1511     0.2102 C.3   1 <1>  -0.0800 
  9 C       -0.9994     1.2448     0.0057 C.3   1 <1>  -0.1600 
 10 C       -1.8786     1.6642     1.1889 C.3   1 <1>   0.1200 
 11 O       -2.5267     2.8742     0.8586 O.3   1 <1>  -0.6800 
 12 C       -1.1652    -1.2283    -0.5491 C.3   1 <1>  -0.1600 
 13 C       -2.6409    -1.3150    -0.1525 C.3   1 <1>   0.1200 
 14 O       -3.2084    -2.4178    -0.8289 O.3   1 <1>  -0.6800 
 15 H        2.8545    -1.6304     0.1381 H     1 <1>   0.0800 
 16 H        1.7183     1.8240     0.3970 H     1 <1>   0.0800 
 17 H        2.6137    -0.1608    -1.7554 H     1 <1>   0.0800 
 18 H        1.0535    -0.8492    -2.1912 H     1 <1>   0.0800 
 19 H        1.4387     1.2747    -3.0607 H     1 <1>   0.4000 
 20 H       -0.4301    -0.3839     1.2729 H     1 <1>   0.0800 
 21 H       -0.2551     2.0247    -0.1239 H     1 <1>   0.0800 
 22 H       -1.5916     1.2518    -0.9105 H     1 <1>   0.0800 
 23 H       -2.6237     0.8971     1.4001 H     1 <1>   0.0800 
 24 H       -1.2515     1.8059     2.0716 H     1 <1>   0.0800 
 25 H       -3.0384     3.1849     1.6106 H     1 <1>   0.4000 
 26 H       -1.1194    -1.0354    -1.6213 H     1 <1>   0.0800 
 27 H       -0.7433    -2.2138    -0.3620 H     1 <1>   0.0800 
 28 H       -2.7211    -1.4628     0.9262 H     1 <1>   0.0800 
 29 H        1.9762    -2.7680     1.8621 H     1 <1>   0.4000 
 30 H        1.3687    -2.3898    -0.3812 H     1 <1>   0.0800 
 31 H        1.7681     0.6984     1.7589 H     1 <1>   0.0800 
 32 H        3.8495     1.4069     1.0247 H     1 <1>   0.4000 
 33 H       -3.1627    -0.4007    -0.4415 H     1 <1>   0.0800 
 34 H       -4.1458    -2.4725    -0.6237 H     1 <1>   0.4000 
@<TRIPOS>BOND
  1   1   2  1   
  2   1  29  1   
  3   2   3  1   
  4   2  15  1   
  5   2  30  1   
  6   3   4  1   
  7   3   6  1   
  8   3   8  1   
  9   4   5  1   
 10   4  16  1   
 11   4  31  1   
 12   5  32  1   
 13   6   7  1   
 14   6  17  1   
 15   6  18  1   
 16   7  19  1   
 17   8   9  1   
 18   8  12  1   
 19   8  20  1   
 20   9  10  1   
 21   9  21  1   
 22   9  22  1   
 23  10  11  1   
 24  10  23  1   
 25  10  24  1   
 26  11  25  1   
 27  12  13  1   
 28  12  26  1   
 29  12  27  1   
 30  13  14  1   
 31  13  28  1   
 32  13  33  1   
 33  14  34  1   
@<TRIPOS>SUBSTRUCTURE
  1 ****   8 GROUP 4 **** **** 0

# MOE 2019.01 (io_trps.svl 2018.10)
