@<TRIPOS>MOLECULE
URC
16 17 1 0 0 
SMALL
USER_CHARGES


@<TRIPOS>ATOM
  1 N        0.6688     0.0083    -2.0197 N.am  1 <1>  -0.4900 
  2 C       -0.7075     0.0023    -2.0838 C.2   1 <1>   0.6900 
  3 C        1.3720     0.0096    -0.8374 C.2   1 <1>   0.6156 
  4 N       -1.4304    -0.0027    -0.9140 N.am  1 <1>  -0.5390 
  5 O       -1.2741     0.0014    -3.1581 O.2   1 <1>  -0.5700 
  6 C       -0.7602    -0.0016     0.2914 C.2   1 <1>   0.2180 
  7 C        0.5845     0.0043     0.3580 C.2   1 <1>   0.1234 
  8 N       -1.3018    -0.0058     1.5390 N.am  1 <1>  -0.5390 
  9 O        2.5952     0.0150    -0.9291 O.2   1 <1>  -0.5700 
 10 N        0.8819     0.0036     1.7338 N.am  1 <1>  -0.5390 
 11 C       -0.2776    -0.0027     2.4465 C.2   1 <1>   0.6900 
 12 O       -0.3913    -0.0051     3.6661 O.2   1 <1>  -0.5700 
 13 H        1.1937     0.0119    -2.8994 H     1 <1>   0.3700 
 14 H       -2.4556    -0.0072    -0.9952 H     1 <1>   0.3700 
 15 H       -2.2884    -0.0107     1.8248 H     1 <1>   0.3700 
 16 H        1.8031     0.0071     2.1929 H     1 <1>   0.3700 
@<TRIPOS>BOND
  1   1   2  am  
  2   1   3  am  
  3   1  13  1   
  4   2   4  am  
  5   2   5  2   
  6   3   7  1   
  7   3   9  2   
  8   4   6  1   
  9   4  14  1   
 10   6   7  2   
 11   6   8  1   
 12   7  10  1   
 13   8  11  am  
 14   8  15  1   
 15  10  11  am  
 16  10  16  1   
 17  11  12  2   
@<TRIPOS>SUBSTRUCTURE
  1 ****   7 GROUP 4 **** **** 0

# MOE 2019.01 (io_trps.svl 2018.10)
