@<TRIPOS>MOLECULE
SMB
16 15 1 0 0 
SMALL
USER_CHARGES


@<TRIPOS>ATOM
  1 C        2.7184     0.2338     0.3837 C.3   1 <1>  -0.2400 
  2 C        1.2908     0.6986     0.0627 C.3   1 <1>  -0.1600 
  3 C        0.2143    -0.3936     0.2537 C.3   1 <1>  -0.1860 
  4 C        0.4229    -1.5821    -0.7106 C.3   1 <1>  -0.2400 
  5 C       -1.2044     0.1978     0.1337 C.2   1 <1>   0.9060 
  6 O       -1.9280     0.1356     1.1516 O.co2 1 <1>  -0.9000 
  7 O       -1.5334     0.6987    -0.9648 O.co2 1 <1>  -0.9000 
  8 H        2.7516    -0.1851     1.3899 H     1 <1>   0.0800 
  9 H        3.0421    -0.5171    -0.3361 H     1 <1>   0.0800 
 10 H        3.3954     1.0862     0.3286 H     1 <1>   0.0800 
 11 H        1.0403     1.5333     0.7205 H     1 <1>   0.0800 
 12 H        1.2445     1.0649    -0.9651 H     1 <1>   0.0800 
 13 H        0.2946    -0.7718     1.2721 H     1 <1>   0.0800 
 14 H        0.4045    -1.2209    -1.7398 H     1 <1>   0.0800 
 15 H        1.3662    -2.0853    -0.5069 H     1 <1>   0.0800 
 16 H       -0.3933    -2.2930    -0.5775 H     1 <1>   0.0800 
@<TRIPOS>BOND
  1   1   2  1   
  2   1   8  1   
  3   1   9  1   
  4   1  10  1   
  5   2   3  1   
  6   2  11  1   
  7   2  12  1   
  8   3   4  1   
  9   3   5  1   
 10   3  13  1   
 11   4  14  1   
 12   4  15  1   
 13   4  16  1   
 14   5   6  ar  
 15   5   7  ar  
@<TRIPOS>SUBSTRUCTURE
  1 ****   3 GROUP 4 **** **** 0

# MOE 2019.01 (io_trps.svl 2018.10)
