@<TRIPOS>MOLECULE
OA4
33 35 1 0 0 
SMALL
USER_CHARGES


@<TRIPOS>ATOM
  1 C        1.7254     1.0284    -0.1928 C.ar  1 <1>   0.3100 
  2 C        1.2786    -0.2953     0.0172 C.ar  1 <1>   0.0000 
  3 C        2.3421    -1.2653     0.0867 C.ar  1 <1>   0.4100 
  4 N        3.5961    -0.9514     0.0630 N.ar  1 <1>  -0.6200 
  5 C        3.8832     0.3487    -0.0815 C.ar  1 <1>   0.7200 
  6 N        3.0524     1.3328    -0.2144 N.ar  1 <1>  -0.6200 
  7 N        2.1608    -2.6046     0.1395 N.pl3 1 <1>  -0.9000 
  8 C        0.7903     2.0608    -0.3835 C.ar  1 <1>  -0.1500 
  9 C       -0.5561     1.7988    -0.3447 C.ar  1 <1>  -0.1500 
 10 C       -1.0345     0.4965    -0.0881 C.ar  1 <1>   0.0000 
 11 C       -0.1276    -0.5442     0.1363 C.ar  1 <1>  -0.1435 
 12 N        5.1827     0.6487    -0.0855 N.pl3 1 <1>  -0.9000 
 13 C       -4.5073    -0.5085    -1.1193 C.ar  1 <1>  -0.1500 
 14 C       -5.2560    -0.0570    -0.0364 C.ar  1 <1>  -0.1500 
 15 C       -0.6651    -1.9187     0.5318 C.3   1 <1>  -0.0965 
 16 C       -4.6225     0.5772     1.0285 C.ar  1 <1>  -0.1500 
 17 C       -3.2441     0.7587     1.0111 C.ar  1 <1>  -0.1500 
 18 C       -2.4809     0.3063    -0.0706 C.ar  1 <1>   0.0000 
 19 C       -3.1288    -0.3273    -1.1368 C.ar  1 <1>  -0.1500 
 20 H        1.1450     3.0423    -0.5626 H     1 <1>   0.1500 
 21 H        3.0137    -3.1539    -0.0277 H     1 <1>   0.4000 
 22 H        1.2695    -2.9794    -0.2001 H     1 <1>   0.4000 
 23 H        5.7599    -0.0767     0.3476 H     1 <1>   0.4000 
 24 H        5.3685     1.6275     0.1467 H     1 <1>   0.4000 
 25 H       -1.2541     2.5810    -0.5045 H     1 <1>   0.1500 
 26 H       -0.0684    -2.3015     1.3599 H     1 <1>   0.0800 
 27 H       -1.6937    -1.8562     0.8837 H     1 <1>   0.0800 
 28 H       -0.6170    -2.5736    -0.3374 H     1 <1>   0.0800 
 29 H       -4.9891    -0.9895    -1.9319 H     1 <1>   0.1500 
 30 H       -6.3073    -0.1950    -0.0230 H     1 <1>   0.1500 
 31 H       -2.5609    -0.6689    -1.9635 H     1 <1>   0.1500 
 32 H       -5.1918     0.9221     1.8535 H     1 <1>   0.1500 
 33 H       -2.7639     1.2409     1.8235 H     1 <1>   0.1500 
@<TRIPOS>BOND
  1   1   2  ar  
  2   1   6  ar  
  3   1   8  ar  
  4   2   3  ar  
  5   2  11  ar  
  6   3   4  ar  
  7   3   7  1   
  8   4   5  ar  
  9   5   6  ar  
 10   5  12  1   
 11   7  21  1   
 12   7  22  1   
 13   8   9  ar  
 14   8  20  1   
 15   9  10  ar  
 16   9  25  1   
 17  10  11  ar  
 18  10  18  1   
 19  11  15  1   
 20  12  23  1   
 21  12  24  1   
 22  13  14  ar  
 23  13  19  ar  
 24  13  29  1   
 25  14  16  ar  
 26  14  30  1   
 27  15  26  1   
 28  15  27  1   
 29  15  28  1   
 30  16  17  ar  
 31  16  32  1   
 32  17  18  ar  
 33  17  33  1   
 34  18  19  ar  
 35  19  31  1   
@<TRIPOS>SUBSTRUCTURE
  1 ****  11 GROUP 4 **** **** 0

# MOE 2019.01 (io_trps.svl 2018.10)
