@<TRIPOS>MOLECULE
14J
11 11 1 0 0 
SMALL
USER_CHARGES


@<TRIPOS>ATOM
  1 C       20.8862    61.9894    -0.2333 C.2   1 <1>  -0.1500 
  2 H       20.3627    62.9030    -0.3576 H     1 <1>   0.1500 
  3 C       20.2928    60.7711    -0.0781 C.2   1 <1>  -0.0920 
  4 O       21.3029    59.8255     0.0545 O.3   1 <1>  -0.2800 
  5 C       22.4851    60.4740    -0.0212 C.2   1 <1>   0.1980 
  6 C       22.2683    61.7984    -0.1970 C.2   1 <1>  -0.1500 
  7 H       23.0144    62.5422    -0.2887 H     1 <1>   0.1500 
  8 BR      24.1030    59.5202     0.1174 Br    1 <1>  -0.0580 
  9 C       18.8620    60.4448    -0.0469 C.2   1 <1>   1.0320 
 10 O       18.0257    61.3873    -0.1753 O.co2 1 <1>  -0.9000 
 11 O       18.4672    59.2539     0.1039 O.co2 1 <1>  -0.9000 
@<TRIPOS>BOND
  1   1   2  1   
  2   1   3  2   
  3   1   6  1   
  4   3   4  1   
  5   3   9  1   
  6   4   5  1   
  7   5   6  2   
  8   5   8  1   
  9   6   7  1   
 10   9  10  ar  
 11   9  11  ar  
@<TRIPOS>SUBSTRUCTURE
  1 ****   3 GROUP 4 **** **** 0

# MOE 2019.01 (io_trps.svl 2018.10)
