@<TRIPOS>MOLECULE
DTD
16 16 1 0 0 
SMALL
USER_CHARGES


@<TRIPOS>ATOM
  1 S        0.9710     0.3287    -1.6550 S.3   1 <1>  -0.2300 
  2 C        1.5456    -0.3474    -0.0793 C.3   1 <1>   0.0700 
  3 C        0.7640     0.1902     1.1292 C.3   1 <1>   0.2000 
  4 O        1.3977    -0.2993     2.3024 O.3   1 <1>  -0.6800 
  5 C       -0.7308    -0.2195     1.1275 C.3   1 <1>   0.2000 
  6 O       -1.3641     0.2613     2.3043 O.3   1 <1>  -0.6800 
  7 C       -1.5125     0.3272    -0.0768 C.3   1 <1>   0.0700 
  8 S       -0.9387    -0.3389    -1.6570 S.3   1 <1>  -0.2300 
  9 H        2.5974    -0.0902     0.0448 H     1 <1>   0.0800 
 10 H        1.4595    -1.4337    -0.1053 H     1 <1>   0.0800 
 11 H        0.8266     1.2801     1.1156 H     1 <1>   0.0800 
 12 H        1.1504     0.2706     3.0380 H     1 <1>   0.4000 
 13 H       -0.7935    -1.3092     1.1057 H     1 <1>   0.0800 
 14 H       -1.1177    -0.3153     3.0349 H     1 <1>   0.4000 
 15 H       -1.4256     1.4136    -0.0955 H     1 <1>   0.0800 
 16 H       -2.5645     0.0697     0.0459 H     1 <1>   0.0800 
@<TRIPOS>BOND
  1   1   2  1   
  2   1   8  1   
  3   2   3  1   
  4   2   9  1   
  5   2  10  1   
  6   3   4  1   
  7   3   5  1   
  8   3  11  1   
  9   4  12  1   
 10   5   6  1   
 11   5   7  1   
 12   5  13  1   
 13   6  14  1   
 14   7   8  1   
 15   7  15  1   
 16   7  16  1   
@<TRIPOS>SUBSTRUCTURE
  1 ****   5 GROUP 4 **** **** 0

# MOE 2019.01 (io_trps.svl 2018.10)
