@<TRIPOS>MOLECULE
FNN
15 15 1 0 0 
SMALL
USER_CHARGES


@<TRIPOS>ATOM
  1 F        0.6490     2.0448    -0.0623 F     1 <1>  -0.1900 
  2 N        1.9730    -0.4057     0.0820 N.pl3 1 <1>   0.9070 
  3 O       -3.5471    -0.1391    -0.2235 O.3   1 <1>  -0.5325 
  4 C       -2.1960    -0.1880    -0.1441 C.ar  1 <1>   0.0825 
  5 O        2.5053    -0.9031     1.0599 O.2   1 <1>  -0.5200 
  6 C       -1.4574     0.9970    -0.1537 C.ar  1 <1>  -0.1500 
  7 O        2.6540    -0.0034    -0.8459 O.2   1 <1>  -0.5200 
  8 C       -0.0751     0.8998    -0.0719 C.ar  1 <1>   0.1900 
  9 C        0.5474    -0.3440     0.0107 C.ar  1 <1>   0.1330 
 10 C       -0.1945    -1.5302     0.0276 C.ar  1 <1>  -0.1500 
 11 C       -1.5836    -1.4432    -0.0524 C.ar  1 <1>  -0.1500 
 12 H       -3.8794     0.7773    -0.2865 H     1 <1>   0.4500 
 13 H       -1.9284     1.9431    -0.2186 H     1 <1>   0.1500 
 14 H        0.2875    -2.4736     0.1002 H     1 <1>   0.1500 
 15 H       -2.1827    -2.3188    -0.0442 H     1 <1>   0.1500 
@<TRIPOS>BOND
  1   1   8  1   
  2   2   5  2   
  3   2   7  2   
  4   2   9  1   
  5   3   4  1   
  6   3  12  1   
  7   4   6  ar  
  8   4  11  ar  
  9   6   8  ar  
 10   6  13  1   
 11   8   9  ar  
 12   9  10  ar  
 13  10  11  ar  
 14  10  14  1   
 15  11  15  1   
@<TRIPOS>SUBSTRUCTURE
  1 ****   9 GROUP 4 **** **** 0

# MOE 2019.01 (io_trps.svl 2018.10)
