@<TRIPOS>MOLECULE
HSM
18 18 1 0 0 
SMALL
USER_CHARGES


@<TRIPOS>ATOM
  1 N       -0.0515    -0.1481     3.6018 N.4   1 <1>  -0.8530 
  2 C       -0.3978     0.1101     2.1813 C.3   1 <1>   0.3430 
  3 C        0.7606    -0.1840     1.2258 C.3   1 <1>   0.0210 
  4 C        0.3375     0.0799    -0.1870 C.2   1 <1>   0.0462 
  5 N       -0.9310     0.5203    -0.5500 N.2   1 <1>  -0.5653 
  6 C        1.1027    -0.0667    -1.3054 C.2   1 <1>  -0.3016 
  7 C       -0.9054     0.6308    -1.8873 C.2   1 <1>   0.0365 
  8 N        0.3018     0.2853    -2.3691 N.pl3 1 <1>   0.0332 
  9 H        0.1957    -1.1200     3.7316 H     1 <1>   0.4500 
 10 H       -0.8507     0.0621     4.1861 H     1 <1>   0.4500 
 11 H        0.7204     0.4390     3.8876 H     1 <1>   0.4500 
 12 H       -1.2487    -0.5074     1.8774 H     1 <1>   0.0800 
 13 H       -0.6905     1.1554     2.0425 H     1 <1>   0.0800 
 14 H        1.6101     0.4577     1.4592 H     1 <1>   0.0800 
 15 H        1.0569    -1.2296     1.3084 H     1 <1>   0.0800 
 16 H        2.1320    -0.3940    -1.3516 H     1 <1>   0.1500 
 17 H       -1.7425     0.9536    -2.4924 H     1 <1>   0.1500 
 18 H        0.5674     0.2859    -3.3438 H     1 <1>   0.2700 
@<TRIPOS>BOND
  1   1   2  1   
  2   1   9  1   
  3   1  10  1   
  4   1  11  1   
  5   2   3  1   
  6   2  12  1   
  7   2  13  1   
  8   3   4  1   
  9   3  14  1   
 10   3  15  1   
 11   4   5  1   
 12   4   6  2   
 13   5   7  2   
 14   6   8  1   
 15   6  16  1   
 16   7   8  1   
 17   7  17  1   
 18   8  18  1   
@<TRIPOS>SUBSTRUCTURE
  1 ****   4 GROUP 4 **** **** 0

# MOE 2019.01 (io_trps.svl 2018.10)
