@<TRIPOS>MOLECULE
KKN
17 18 1 0 0 
SMALL
USER_CHARGES


@<TRIPOS>ATOM
  1 O       -2.6109    -0.9531     0.0302 O.3   1 <1>  -0.1534 
  2 C       -1.4160    -1.6229     0.0612 C.2   1 <1>  -0.0733 
  3 H       -1.4749    -2.6806     0.1062 H     1 <1>   0.1500 
  4 C       -0.2776    -0.8869     0.0320 C.2   1 <1>   0.0767 
  5 C       -0.2690     0.5277    -0.0287 C.2   1 <1>   0.0000 
  6 C       -1.5439     1.1846    -0.0597 C.2   1 <1>  -0.1500 
  7 C       -2.6774     0.4280    -0.0294 C.2   1 <1>  -0.0733 
  8 C        1.0151     0.9540    -0.0445 C.2   1 <1>  -0.1238 
  9 C        1.8402    -0.2037     0.0064 C.2   1 <1>   0.7056 
 10 O        3.0685    -0.2860     0.0119 O.2   1 <1>  -0.5700 
 11 O        1.0467    -1.3308     0.0535 O.3   1 <1>  -0.2267 
 12 C        1.4861     2.3938    -0.1048 C.3   1 <1>  -0.1018 
 13 H       -1.5873     2.2422    -0.1055 H     1 <1>   0.1500 
 14 H       -3.6675     0.8092    -0.0478 H     1 <1>   0.1500 
 15 H        1.0970     2.8977     0.7691 H     1 <1>   0.0800 
 16 H        2.5682     2.3891    -0.1038 H     1 <1>   0.0800 
 17 H        1.0985     2.8229    -1.0185 H     1 <1>   0.0800 
@<TRIPOS>BOND
  1   1   2  1   
  2   1   7  1   
  3   2   3  1   
  4   2   4  2   
  5   4   5  1   
  6   4  11  1   
  7   5   6  1   
  8   5   8  2   
  9   6   7  2   
 10   6  13  1   
 11   7  14  1   
 12   8   9  1   
 13   8  12  1   
 14   9  10  2   
 15   9  11  1   
 16  12  15  1   
 17  12  16  1   
 18  12  17  1   
@<TRIPOS>SUBSTRUCTURE
  1 ****   5 GROUP 4 **** **** 0

# MOE 2019.01 (io_trps.svl 2018.10)
