@<TRIPOS>MOLECULE
3PF
22 23 1 0 0 
SMALL
USER_CHARGES


@<TRIPOS>ATOM
  1 C        3.0318     1.2618    -0.2507 C.3   1 <1>   0.0601 
  2 O        2.6811    -1.3971     0.3808 O.2   1 <1>  -0.5700 
  3 C       -3.1097     0.7071    -0.3177 C.ar  1 <1>  -0.1500 
  4 C       -3.1159    -0.6780    -0.1594 C.ar  1 <1>  -0.1500 
  5 C       -1.9158     1.4207    -0.2124 C.ar  1 <1>  -0.1500 
  6 C       -1.9288    -1.3537     0.0994 C.ar  1 <1>  -0.1500 
  7 C        0.5795     1.5238     0.2124 C.3   1 <1>   0.2836 
  8 N        0.4621    -1.2945     0.4306 N.am  1 <1>  -0.5470 
  9 C        1.6755    -0.7103     0.2584 C.2   1 <1>   0.6900 
 10 C       -0.7177     0.7566     0.0460 C.ar  1 <1>  -0.1435 
 11 C       -0.7423    -0.6284     0.1939 C.ar  1 <1>   0.1170 
 12 N        1.7180     0.6282    -0.0634 N.am  1 <1>  -0.6602 
 13 H        3.4508     1.4414     0.7307 H     1 <1>   0.0800 
 14 H        3.6551     0.5797    -0.8158 H     1 <1>   0.0800 
 15 H        2.8923     2.1838    -0.7987 H     1 <1>   0.0800 
 16 H       -4.0164     1.2197    -0.5163 H     1 <1>   0.1500 
 17 H       -4.0265    -1.2153    -0.2380 H     1 <1>   0.1500 
 18 H       -1.9269     2.4745    -0.3265 H     1 <1>   0.1500 
 19 H       -1.9235    -2.4058     0.2177 H     1 <1>   0.1500 
 20 H        0.5855     2.3368    -0.5014 H     1 <1>   0.0800 
 21 H        0.6412     1.8677     1.2365 H     1 <1>   0.0800 
 22 H        0.4925    -2.3000     0.6214 H     1 <1>   0.3700 
@<TRIPOS>BOND
  1   1  12  1   
  2   1  13  1   
  3   1  14  1   
  4   1  15  1   
  5   2   9  2   
  6   3   4  ar  
  7   3   5  ar  
  8   3  16  1   
  9   4   6  ar  
 10   4  17  1   
 11   5  10  ar  
 12   5  18  1   
 13   6  11  ar  
 14   6  19  1   
 15   7  10  1   
 16   7  12  1   
 17   7  20  1   
 18   7  21  1   
 19   8   9  am  
 20   8  11  1   
 21   8  22  1   
 22   9  12  am  
 23  10  11  ar  
@<TRIPOS>SUBSTRUCTURE
  1 ****  11 GROUP 4 **** **** 0

# MOE 2019.01 (io_trps.svl 2018.10)
