@<TRIPOS>MOLECULE
TYL
20 20 1 0 0 
SMALL
USER_CHARGES


@<TRIPOS>ATOM
  1 C        0.3744     0.1978     0.2094 C.ar  1 <1>   0.1170 
  2 C       -0.8888     0.5286    -0.2961 C.ar  1 <1>  -0.1500 
  3 C       -1.1088     0.4946    -1.6694 C.ar  1 <1>  -0.1500 
  4 C       -0.0631     0.1374    -2.5187 C.ar  1 <1>   0.0825 
  5 C        1.1963    -0.1863    -2.0230 C.ar  1 <1>  -0.1500 
  6 C        1.4185    -0.1554    -0.6502 C.ar  1 <1>  -0.1500 
  7 N        0.6659     0.2358     1.5968 N.am  1 <1>  -0.5470 
  8 C       -0.1867    -0.0149     2.6370 C.2   1 <1>   0.5690 
  9 C        0.3978     0.1180     4.0160 C.3   1 <1>  -0.1790 
 10 O       -0.2658     0.1020    -3.8644 O.3   1 <1>  -0.5325 
 11 O       -1.3372    -0.3424     2.4528 O.2   1 <1>  -0.5700 
 12 H       -1.6731     0.8084     0.3579 H     1 <1>   0.1500 
 13 H       -2.0617     0.7394    -2.0600 H     1 <1>   0.1500 
 14 H        1.9718    -0.4543    -2.6930 H     1 <1>   0.1500 
 15 H        2.3709    -0.4034    -0.2606 H     1 <1>   0.1500 
 16 H        1.6382     0.4317     1.8566 H     1 <1>   0.3700 
 17 H       -0.3923    -0.1094     4.7177 H     1 <1>   0.0800 
 18 H        1.2109    -0.5893     4.0862 H     1 <1>   0.0800 
 19 H        0.7433     1.1363     4.1174 H     1 <1>   0.0800 
 20 H       -1.1907     0.3307    -4.0734 H     1 <1>   0.4500 
@<TRIPOS>BOND
  1   1   2  ar  
  2   1   6  ar  
  3   1   7  1   
  4   2   3  ar  
  5   2  12  1   
  6   3   4  ar  
  7   3  13  1   
  8   4   5  ar  
  9   4  10  1   
 10   5   6  ar  
 11   5  14  1   
 12   6  15  1   
 13   7   8  am  
 14   7  16  1   
 15   8   9  1   
 16   8  11  2   
 17   9  17  1   
 18   9  18  1   
 19   9  19  1   
 20  10  20  1   
@<TRIPOS>SUBSTRUCTURE
  1 ****   1 GROUP 4 **** **** 0

# MOE 2019.01 (io_trps.svl 2018.10)
