@<TRIPOS>MOLECULE
TLM
28 28 1 0 0 
SMALL
USER_CHARGES


@<TRIPOS>ATOM
  1 S      -62.6772   104.3450   -12.2482 S.3   1 <1>  -0.3710 
  2 C      -63.0861   103.3565   -10.8965 C.2   1 <1>   0.6966 
  3 C      -64.4964   103.0752   -10.8262 C.2   1 <1>  -0.1238 
  4 C      -65.1938   103.6449   -11.8283 C.2   1 <1>  -0.0615 
  5 C      -64.4130   104.4999   -12.8299 C.3   1 <1>   0.5064 
  6 C      -64.8782   105.9521   -12.7597 C.2   1 <1>  -0.2882 
  7 C      -64.3078   107.0763   -13.2587 C.2   1 <1>  -0.1382 
  8 C      -64.9685   108.3629   -13.0376 C.2   1 <1>  -0.1500 
  9 H      -65.8986   108.3214   -12.5289 H     1 <1>   0.1500 
 10 O      -62.2405   102.9404   -10.1081 O.2   1 <1>  -0.5700 
 11 C      -65.0888   102.1962    -9.7346 C.3   1 <1>  -0.1018 
 12 C      -63.0013   107.1032   -14.0418 C.3   1 <1>  -0.1018 
 13 H      -63.1938   107.6251   -14.9685 H     1 <1>   0.0800 
 14 H      -62.6510   106.1107   -14.2601 H     1 <1>   0.0800 
 15 H      -62.2799   107.6291   -13.4321 H     1 <1>   0.0800 
 16 O      -66.5398   103.4751   -11.9685 O.3   1 <1>  -0.5267 
 17 C      -64.5361   103.9081   -14.2419 C.3   1 <1>  -0.2400 
 18 H      -65.7966   106.0334   -12.2384 H     1 <1>   0.1500 
 19 H      -64.4286   102.2398    -8.8777 H     1 <1>   0.0800 
 20 H      -66.0628   102.5835    -9.4715 H     1 <1>   0.0800 
 21 H      -65.1435   101.1898   -10.1271 H     1 <1>   0.0800 
 22 H      -66.9199   102.8966   -11.2771 H     1 <1>   0.4500 
 23 H      -63.9201   104.4738   -14.9354 H     1 <1>   0.0800 
 24 H      -64.2107   102.8690   -14.2077 H     1 <1>   0.0800 
 25 H      -65.5828   103.9680   -14.5394 H     1 <1>   0.0800 
 26 C      -64.4885   109.5636   -13.4196 C.2   1 <1>  -0.3000 
 27 H      -65.0168   110.4617   -13.2276 H     1 <1>   0.1500 
 28 H      -63.5656   109.6835   -13.9240 H     1 <1>   0.1500 
@<TRIPOS>BOND
  1   1   2  1   
  2   1   5  1   
  3   2   3  1   
  4   2  10  2   
  5   3   4  2   
  6   3  11  1   
  7   4   5  1   
  8   4  16  1   
  9   5   6  1   
 10   5  17  1   
 11   6   7  2   
 12   6  18  1   
 13   7   8  1   
 14   7  12  1   
 15   8   9  1   
 16   8  26  2   
 17  11  19  1   
 18  11  20  1   
 19  11  21  1   
 20  12  13  1   
 21  12  14  1   
 22  12  15  1   
 23  16  22  1   
 24  17  23  1   
 25  17  24  1   
 26  17  25  1   
 27  26  27  1   
 28  26  28  1   
@<TRIPOS>SUBSTRUCTURE
  1 ****   5 GROUP 4 **** **** 0

# MOE 2019.01 (io_trps.svl 2018.10)
