@<TRIPOS>MOLECULE
5VL
24 25 1 0 0 
SMALL
USER_CHARGES


@<TRIPOS>ATOM
  1 C        3.5407    -0.3380    -0.2468 C.ar  1 <1>  -0.1500 
  2 C        2.7940    -1.3621    -0.8274 C.ar  1 <1>  -0.1500 
  3 C        1.4039    -1.3492    -0.7481 C.ar  1 <1>  -0.1500 
  4 C        0.7335    -0.3136    -0.0871 C.ar  1 <1>   0.0000 
  5 C       -0.7241    -0.3109    -0.0123 C.ar  1 <1>   0.0000 
  6 C       -2.7892    -1.3440     0.7373 C.ar  1 <1>  -0.1500 
  7 C       -1.4950     0.7020    -0.6053 C.ar  1 <1>   0.0825 
  8 O        0.9068     1.7354     1.1478 O.3   1 <1>  -0.5325 
  9 C        1.5082     0.7045     0.4916 C.ar  1 <1>   0.0825 
 10 C        2.8957     0.7007     0.4158 C.ar  1 <1>  -0.1500 
 11 C       -1.3988    -1.3362     0.6607 C.ar  1 <1>  -0.1500 
 12 C       -3.5320    -0.3258     0.1412 C.ar  1 <1>  -0.1500 
 13 C       -2.8828     0.7023    -0.5334 C.ar  1 <1>  -0.1500 
 14 O       -0.8895     1.7233    -1.2727 O.3   1 <1>  -0.5325 
 15 H        4.5992    -0.3520    -0.3093 H     1 <1>   0.1500 
 16 H        3.2879    -2.1536    -1.3316 H     1 <1>   0.1500 
 17 H        0.8450    -2.1309    -1.1960 H     1 <1>   0.1500 
 18 H       -3.2863    -2.1274     1.2509 H     1 <1>   0.1500 
 19 H       -0.0665     1.6116     1.1500 H     1 <1>   0.4500 
 20 H        3.4507     1.4847     0.8634 H     1 <1>   0.1500 
 21 H       -0.8431    -2.1139     1.1196 H     1 <1>   0.1500 
 22 H       -4.5906    -0.3363     0.2009 H     1 <1>   0.1500 
 23 H       -3.4349     1.4812    -0.9931 H     1 <1>   0.1500 
 24 H        0.0837     1.5984    -1.2687 H     1 <1>   0.4500 
@<TRIPOS>BOND
  1   1   2  ar  
  2   1  10  ar  
  3   1  15  1   
  4   2   3  ar  
  5   2  16  1   
  6   3   4  ar  
  7   3  17  1   
  8   4   5  1   
  9   4   9  ar  
 10   5   7  ar  
 11   5  11  ar  
 12   6  11  ar  
 13   6  12  ar  
 14   6  18  1   
 15   7  13  ar  
 16   7  14  1   
 17   8   9  1   
 18   8  19  1   
 19   9  10  ar  
 20  10  20  1   
 21  11  21  1   
 22  12  13  ar  
 23  12  22  1   
 24  13  23  1   
 25  14  24  1   
@<TRIPOS>SUBSTRUCTURE
  1 ****   4 GROUP 4 **** **** 0

# MOE 2019.01 (io_trps.svl 2018.10)
