@<TRIPOS>MOLECULE
4FG
17 17 1 0 0 
SMALL
USER_CHARGES


@<TRIPOS>ATOM
  1 C       -0.0637     1.2579    -0.0959 C.ar  1 <1>  -0.1500 
  2 C       -1.4446     1.2327    -0.1530 C.ar  1 <1>  -0.1500 
  3 C       -0.1313    -1.1288     0.2168 C.ar  1 <1>   0.1600 
  4 C        0.6236     0.0483     0.0840 C.ar  1 <1>   0.0862 
  5 C       -2.0953     0.0038    -0.0239 C.ar  1 <1>   0.4100 
  6 C        2.0816     0.0246     0.1354 C.2   1 <1>   0.5438 
  7 N       -1.4613    -1.1471     0.1601 N.ar  1 <1>  -0.6200 
  8 N       -3.4403    -0.1046    -0.0694 N.pl3 1 <1>  -0.9000 
  9 N        2.7806    -1.1132    -0.0766 N.am  1 <1>  -0.8000 
 10 O        2.7773     1.0010     0.3534 O.2   1 <1>  -0.5700 
 11 H        0.4712     2.1696    -0.1890 H     1 <1>   0.1500 
 12 H       -2.0057     2.1179    -0.2963 H     1 <1>   0.1500 
 13 H        0.3582    -2.0549     0.3758 H     1 <1>   0.1500 
 14 H       -3.9788     0.7149     0.2312 H     1 <1>   0.4000 
 15 H       -3.7742    -1.0209     0.2562 H     1 <1>   0.4000 
 16 H        2.3363    -1.9598    -0.4484 H     1 <1>   0.3700 
 17 H        3.8057    -1.0272    -0.0911 H     1 <1>   0.3700 
@<TRIPOS>BOND
  1   1   2  ar  
  2   1   4  ar  
  3   1  11  1   
  4   2   5  ar  
  5   2  12  1   
  6   3   4  ar  
  7   3   7  ar  
  8   3  13  1   
  9   4   6  1   
 10   5   7  ar  
 11   5   8  1   
 12   6   9  am  
 13   6  10  2   
 14   8  14  1   
 15   8  15  1   
 16   9  16  1   
 17   9  17  1   
@<TRIPOS>SUBSTRUCTURE
  1 ****   4 GROUP 4 **** **** 0

# MOE 2019.01 (io_trps.svl 2018.10)
