@<TRIPOS>MOLECULE
ABU
16 15 1 0 0 
SMALL
USER_CHARGES


@<TRIPOS>ATOM
  1 N        3.2443    -0.3483     0.5944 N.4   1 <1>  -0.8530 
  2 H        4.1276     0.1345     0.6669 H     1 <1>   0.4500 
  3 H        3.2872    -1.0495    -0.1328 H     1 <1>   0.4500 
  4 H        3.0274    -0.8138     1.4653 H     1 <1>   0.4500 
  5 C        2.1545     0.5926     0.2789 C.3   1 <1>   0.3430 
  6 H        2.3366     1.0969    -0.6747 H     1 <1>   0.0800 
  7 H        2.0534     1.3500     1.0618 H     1 <1>   0.0800 
  8 C        0.8589    -0.1880     0.1813 C.3   1 <1>  -0.1600 
  9 H        0.6562    -0.6972     1.1262 H     1 <1>   0.0800 
 10 H        0.9324    -0.9398    -0.6078 H     1 <1>   0.0800 
 11 C       -0.3326     0.7319    -0.1366 C.3   1 <1>  -0.2660 
 12 H       -0.1790     1.2379    -1.0881 H     1 <1>   0.0800 
 13 H       -0.4571     1.4771     0.6469 H     1 <1>   0.0800 
 14 C       -1.6522    -0.0188    -0.2445 C.2   1 <1>   0.9060 
 15 O       -1.6182    -1.2504    -0.0432 O.co2 1 <1>  -0.9000 
 16 O       -2.6442     0.6758    -0.5259 O.co2 1 <1>  -0.9000 
@<TRIPOS>BOND
  1   1   2  1   
  2   1   3  1   
  3   1   4  1   
  4   1   5  1   
  5   5   6  1   
  6   5   7  1   
  7   5   8  1   
  8   8   9  1   
  9   8  10  1   
 10   8  11  1   
 11  11  12  1   
 12  11  13  1   
 13  11  14  1   
 14  14  15  ar  
 15  14  16  ar  
@<TRIPOS>SUBSTRUCTURE
  1 ****  11 GROUP 4 **** **** 0

# MOE 2019.01 (io_trps.svl 2018.10)
