@<TRIPOS>MOLECULE
X8D
24 26 1 0 0 
SMALL
USER_CHARGES


@<TRIPOS>ATOM
  1 C        2.9867    -1.5677    -0.0694 C.ar  1 <1>  -0.1500 
  2 C        1.9269    -2.4737    -0.0630 C.ar  1 <1>  -0.1500 
  3 C        2.7436    -0.2004    -0.0437 C.ar  1 <1>  -0.1500 
  4 C        0.6183    -2.0145    -0.0311 C.ar  1 <1>  -0.1500 
  5 C        1.4302     0.3020    -0.0108 C.ar  1 <1>   0.0284 
  6 C        0.3697    -0.6364    -0.0054 C.ar  1 <1>   0.1170 
  7 C       -0.1445     2.1595     0.0493 C.2   1 <1>  -0.1356 
  8 C        1.1463     1.7331     0.0175 C.2   1 <1>  -0.1666 
  9 C       -1.2375     1.2316     0.0549 C.2   1 <1>   0.4956 
 10 C       -2.1638    -0.7758     0.0379 C.2   1 <1>   0.6900 
 11 C        2.2757     2.7496     0.0115 C.3   1 <1>  -0.1018 
 12 N       -2.5060     1.4739     0.0826 N.2   1 <1>  -0.5120 
 13 N       -3.0733     0.2214     0.0718 N.am  1 <1>  -0.3680 
 14 N       -0.9655    -0.1295     0.0272 N.am  1 <1>  -0.2370 
 15 O       -2.4237    -1.9861     0.0213 O.2   1 <1>  -0.5700 
 16 H        3.9839    -1.9279    -0.0941 H     1 <1>   0.1500 
 17 H        2.1229    -3.5159    -0.0828 H     1 <1>   0.1500 
 18 H        3.5673     0.4639    -0.0492 H     1 <1>   0.1500 
 19 H       -0.1748    -2.7147    -0.0265 H     1 <1>   0.1500 
 20 H       -0.3850     3.1900     0.0706 H     1 <1>   0.1500 
 21 H        2.8414     2.6011    -0.8982 H     1 <1>   0.0800 
 22 H        1.8530     3.7446     0.0360 H     1 <1>   0.0800 
 23 H        2.8770     2.5721     0.8927 H     1 <1>   0.0800 
 24 H       -4.0854     0.0150     0.0868 H     1 <1>   0.3700 
@<TRIPOS>BOND
  1   1   2  ar  
  2   1   3  ar  
  3   1  16  1   
  4   2   4  ar  
  5   2  17  1   
  6   3   5  ar  
  7   3  18  1   
  8   4   6  ar  
  9   4  19  1   
 10   5   6  ar  
 11   5   8  1   
 12   6  14  1   
 13   7   8  2   
 14   7   9  1   
 15   7  20  1   
 16   8  11  1   
 17   9  12  2   
 18   9  14  1   
 19  10  13  am  
 20  10  14  am  
 21  10  15  2   
 22  11  21  1   
 23  11  22  1   
 24  11  23  1   
 25  12  13  1   
 26  13  24  1   
@<TRIPOS>SUBSTRUCTURE
  1 ****   6 GROUP 4 **** **** 0

# MOE 2019.01 (io_trps.svl 2018.10)
