@<TRIPOS>MOLECULE
XAN
15 16 1 0 0 
SMALL
USER_CHARGES


@<TRIPOS>ATOM
  1 N       -2.1106    -0.1283     1.0289 N.2   1 <1>  -0.5653 
  2 C       -0.8254     0.0214     0.6697 C.2   1 <1>   0.2902 
  3 N        0.2408     0.4275     1.4522 N.am  1 <1>  -0.4930 
  4 C        1.4992     0.5293     0.9232 C.2   1 <1>   0.6900 
  5 O        2.4386     0.8877     1.6091 O.2   1 <1>  -0.5700 
  6 N        1.6977     0.2206    -0.4031 N.am  1 <1>  -0.4900 
  7 C        0.6888    -0.1860    -1.2263 C.2   1 <1>   0.7150 
  8 O        0.9683    -0.4366    -2.3879 O.2   1 <1>  -0.5700 
  9 C       -0.5953    -0.2720    -0.6237 C.2   1 <1>  -0.2366 
 10 N       -1.8094    -0.6265    -1.1039 N.pl3 1 <1>   0.0332 
 11 H       -2.0314    -0.9202    -2.0716 H     1 <1>   0.2700 
 12 C       -2.6939    -0.5267    -0.0774 C.2   1 <1>   0.0365 
 13 H       -3.7200    -0.7582    -0.2215 H     1 <1>   0.1500 
 14 H        0.1104     0.6607     2.4427 H     1 <1>   0.3700 
 15 H        2.6421     0.3003    -0.7865 H     1 <1>   0.3700 
@<TRIPOS>BOND
  1   1   2  1   
  2   1  12  2   
  3   2   3  1   
  4   2   9  2   
  5   3   4  am  
  6   3  14  1   
  7   4   5  2   
  8   4   6  am  
  9   6   7  am  
 10   6  15  1   
 11   7   8  2   
 12   7   9  1   
 13   9  10  1   
 14  10  11  1   
 15  10  12  1   
 16  12  13  1   
@<TRIPOS>SUBSTRUCTURE
  1 ****   9 GROUP 4 **** **** 0

# MOE 2019.01 (io_trps.svl 2018.10)
