@<TRIPOS>MOLECULE
PAB
16 16 1 0 0 
SMALL
USER_CHARGES


@<TRIPOS>ATOM
  1 C        0.0362    -0.0279    -0.5748 C.ar  1 <1>  -0.1790 
  2 C       -1.1708     0.0694     0.1422 C.ar  1 <1>  -0.1500 
  3 H       -2.0813     0.1493    -0.3969 H     1 <1>   0.1500 
  4 C       -1.1833     0.0611     1.5311 C.ar  1 <1>  -0.1500 
  5 H       -2.0976     0.1302     2.0572 H     1 <1>   0.1500 
  6 C        0.0200    -0.0416     2.2283 C.ar  1 <1>   0.1000 
  7 C        1.2300    -0.1519     1.5440 C.ar  1 <1>  -0.1500 
  8 H        2.1367    -0.2435     2.0799 H     1 <1>   0.1500 
  9 C        1.2339    -0.1429     0.1551 C.ar  1 <1>  -0.1500 
 10 H        2.1501    -0.2243    -0.3742 H     1 <1>   0.1500 
 11 N        0.0137    -0.0245     3.6123 N.pl3 1 <1>  -0.9000 
 12 H        0.9050     0.2684     4.0340 H     1 <1>   0.4000 
 13 H       -0.8179     0.4194     4.0241 H     1 <1>   0.4000 
 14 C        0.0456    -0.0113    -2.0460 C.2   1 <1>   0.9790 
 15 O       -1.0432     0.0958    -2.6794 O.co2 1 <1>  -0.9000 
 16 O        1.1428    -0.1010    -2.6676 O.co2 1 <1>  -0.9000 
@<TRIPOS>BOND
  1   1   2  ar  
  2   1   9  ar  
  3   1  14  1   
  4   2   3  1   
  5   2   4  ar  
  6   4   5  1   
  7   4   6  ar  
  8   6   7  ar  
  9   6  11  1   
 10   7   8  1   
 11   7   9  ar  
 12   9  10  1   
 13  11  12  1   
 14  11  13  1   
 15  14  15  ar  
 16  14  16  ar  
@<TRIPOS>SUBSTRUCTURE
  1 ****   1 GROUP 4 **** **** 0

# MOE 2019.01 (io_trps.svl 2018.10)
