@<TRIPOS>MOLECULE
TT4
22 23 1 0 0 
SMALL
USER_CHARGES


@<TRIPOS>ATOM
  1 C       -1.4998    -1.2229    -0.5964 C.ar  1 <1>  -0.1500 
  2 C       -2.8880    -1.3094    -0.5881 C.ar  1 <1>  -0.1500 
  3 C       -3.6454    -0.3489     0.0823 C.ar  1 <1>  -0.1500 
  4 C       -3.0186     0.7012     0.7533 C.ar  1 <1>  -0.1500 
  5 C       -1.6311     0.8002     0.7534 C.ar  1 <1>  -0.1500 
  6 C       -0.8833    -0.1616     0.0686 C.ar  1 <1>  -0.0230 
  7 N        0.5451    -0.0598     0.0448 N.pl3 1 <1>   0.5926 
  8 N        1.3995    -1.0057     0.5181 N.2   1 <1>  -0.7068 
  9 C        2.5168    -0.4209     0.2990 C.2   1 <1>   0.5990 
 10 N        3.6755    -1.0356     0.6410 N.pl3 1 <1>  -0.8830 
 11 N        2.5251     0.7879    -0.2853 N.2   1 <1>  -0.5653 
 12 C        1.2709     0.9965    -0.4422 C.2   1 <1>   0.2705 
 13 N        0.7563     2.1382    -1.0461 N.pl3 1 <1>  -0.8840 
 14 H       -0.9170    -1.9535    -1.0987 H     1 <1>   0.1500 
 15 H       -3.3722    -2.1085    -1.0899 H     1 <1>   0.1500 
 16 H       -4.7034    -0.4204     0.0857 H     1 <1>   0.1500 
 17 H       -3.6031     1.4213     1.2678 H     1 <1>   0.1500 
 18 H       -1.1506     1.5893     1.2746 H     1 <1>   0.1500 
 19 H        3.5110    -2.0466     0.6503 H     1 <1>   0.4000 
 20 H        4.4123    -0.7304    -0.0017 H     1 <1>   0.4000 
 21 H       -0.2313     2.3660    -0.8613 H     1 <1>   0.4000 
 22 H        1.4184     2.9280    -1.0661 H     1 <1>   0.4000 
@<TRIPOS>BOND
  1   1   2  ar  
  2   1   6  ar  
  3   1  14  1   
  4   2   3  ar  
  5   2  15  1   
  6   3   4  ar  
  7   3  16  1   
  8   4   5  ar  
  9   4  17  1   
 10   5   6  ar  
 11   5  18  1   
 12   6   7  1   
 13   7   8  1   
 14   7  12  1   
 15   8   9  2   
 16   9  10  1   
 17   9  11  1   
 18  10  19  1   
 19  10  20  1   
 20  11  12  2   
 21  12  13  1   
 22  13  21  1   
 23  13  22  1   
@<TRIPOS>SUBSTRUCTURE
  1 ****   7 GROUP 4 **** **** 0

# MOE 2019.01 (io_trps.svl 2018.10)
