@<TRIPOS>MOLECULE
MW5
27 29 1 0 0 
SMALL
USER_CHARGES


@<TRIPOS>ATOM
  1 O        0.7187    -1.8668     1.6138 O.2   1 <1>  -0.5700 
  2 C        0.9768    -0.8576     0.9214 C.2   1 <1>   0.6156 
  3 N        2.1773    -0.8571     0.2003 N.am  1 <1>  -0.0580 
  4 N        3.1618    -1.8431     0.0858 N.2   1 <1>  -0.5120 
  5 C        4.0369    -1.3260    -0.6863 C.2   1 <1>   0.4400 
  6 C        0.1776     0.3095     0.8042 C.2   1 <1>  -0.1238 
  7 C        0.6370     1.3713     0.0369 C.2   1 <1>   0.3110 
  8 CL      -0.2598     2.8505    -0.1207 Cl    1 <1>  -0.1400 
  9 N        1.8173     1.3429    -0.6345 N.2   1 <1>  -0.6210 
 10 C        2.5036     0.2359    -0.5188 C.2   1 <1>   0.5600 
 11 N        3.6737    -0.0721    -1.0703 N.pl3 1 <1>  -0.5000 
 12 C       -1.1686     0.3378     1.5177 C.3   1 <1>   0.1217 
 13 C       -2.1809    -0.1845     0.5120 C.ar  1 <1>  -0.1435 
 14 C       -2.3109    -1.5570     0.2957 C.ar  1 <1>  -0.1500 
 15 C       -3.2279    -2.0404    -0.6324 C.ar  1 <1>  -0.1500 
 16 C       -4.0244    -1.1555    -1.3506 C.ar  1 <1>  -0.1500 
 17 C       -3.9045     0.2134    -1.1375 C.ar  1 <1>  -0.1500 
 18 C       -2.9876     0.6969    -0.2089 C.ar  1 <1>  -0.1500 
 19 H        4.9445    -1.7644    -1.0191 H     1 <1>   0.0600 
 20 H        4.1867     0.5677    -1.6869 H     1 <1>   0.4000 
 21 H       -1.1516    -0.3245     2.3735 H     1 <1>   0.0800 
 22 H       -1.4274     1.3437     1.8161 H     1 <1>   0.0800 
 23 H       -1.7100    -2.2428     0.8384 H     1 <1>   0.1500 
 24 H       -2.9084     1.7423    -0.0551 H     1 <1>   0.1500 
 25 H       -3.3181    -3.0846    -0.7915 H     1 <1>   0.1500 
 26 H       -4.7217    -1.5238    -2.0587 H     1 <1>   0.1500 
 27 H       -4.5116     0.8894    -1.6832 H     1 <1>   0.1500 
@<TRIPOS>BOND
  1   1   2  2   
  2   2   3  am  
  3   2   6  1   
  4   3   4  1   
  5   3  10  1   
  6   4   5  2   
  7   5  11  1   
  8   5  19  1   
  9   6   7  2   
 10   6  12  1   
 11   7   8  1   
 12   7   9  1   
 13   9  10  2   
 14  10  11  1   
 15  11  20  1   
 16  12  13  1   
 17  12  21  1   
 18  12  22  1   
 19  13  14  ar  
 20  13  18  ar  
 21  14  15  ar  
 22  14  23  1   
 23  15  16  ar  
 24  15  25  1   
 25  16  17  ar  
 26  16  26  1   
 27  17  18  ar  
 28  17  27  1   
 29  18  24  1   
@<TRIPOS>SUBSTRUCTURE
  1 ****   6 GROUP 4 **** **** 0

# MOE 2019.01 (io_trps.svl 2018.10)
