@<TRIPOS>MOLECULE
4R1
29 29 1 0 0 
SMALL
USER_CHARGES


@<TRIPOS>ATOM
  1 C       29.8492   146.9809   -61.6067 C.3   1 <1>   0.4230 
  2 H       30.6915   147.3419   -62.1972 H     1 <1>   0.0800 
  3 C       31.2336   145.0867   -60.6498 C.3   1 <1>   0.2000 
  4 H       32.1162   145.3741   -61.2231 H     1 <1>   0.0800 
  5 C       31.2464   145.8250   -59.2990 C.3   1 <1>   0.2000 
  6 H       30.4325   145.4442   -58.6810 H     1 <1>   0.0800 
  7 C       32.5802   145.6437   -58.5589 C.3   1 <1>   0.1200 
  8 H       33.3899   145.9331   -59.2293 H     1 <1>   0.0800 
  9 H       32.7144   144.5935   -58.2990 H     1 <1>   0.0800 
 10 O       29.8830   149.0470   -60.3580 O.3   1 <1>  -0.6800 
 11 H       29.7356   149.4786   -59.5010 H     1 <1>   0.4000 
 12 O       32.6783   146.4403   -57.3848 O.3   1 <1>  -0.5512 
 13 P       31.7491   146.2194   -56.0702 P.3   1 <1>   1.3712 
 14 O       30.4382   146.7843   -56.4631 O.co2 1 <1>  -1.0333 
 15 O       32.4662   146.9937   -55.0329 O.co2 1 <1>  -1.0333 
 16 O       31.7615   144.7527   -55.8663 O.co2 1 <1>  -1.0333 
 17 O       31.0912   147.2379   -59.5708 O.3   1 <1>  -0.5600 
 18 C       29.8519   147.6165   -60.2025 C.3   1 <1>   0.4800 
 19 H       28.9968   147.2993   -59.6195 H     1 <1>   0.0800 
 20 N       28.5932   147.3659   -62.2792 N.4   1 <1>  -0.8530 
 21 H       27.8072   147.0343   -61.7384 H     1 <1>   0.4500 
 22 H       28.5655   146.9540   -63.2009 H     1 <1>   0.4500 
 23 H       28.5481   148.3718   -62.3574 H     1 <1>   0.4500 
 24 C       29.9707   145.4538   -61.4520 C.3   1 <1>   0.2000 
 25 H       29.0891   145.0728   -60.9341 H     1 <1>   0.0800 
 26 O       30.0457   144.8728   -62.7393 O.3   1 <1>  -0.6800 
 27 H       30.0690   143.9181   -62.6419 H     1 <1>   0.4000 
 28 O       31.2616   143.6916   -60.4169 O.3   1 <1>  -0.6800 
 29 H       30.4812   143.4512   -59.9123 H     1 <1>   0.4000 
@<TRIPOS>BOND
  1   1   2  1   
  2   1  18  1   
  3   1  20  1   
  4   1  24  1   
  5   3   4  1   
  6   3   5  1   
  7   3  24  1   
  8   3  28  1   
  9   5   6  1   
 10   5   7  1   
 11   5  17  1   
 12   7   8  1   
 13   7   9  1   
 14   7  12  1   
 15  10  11  1   
 16  10  18  1   
 17  12  13  1   
 18  13  14  ar  
 19  13  15  ar  
 20  13  16  ar  
 21  17  18  1   
 22  18  19  1   
 23  20  21  1   
 24  20  22  1   
 25  20  23  1   
 26  24  25  1   
 27  24  26  1   
 28  26  27  1   
 29  28  29  1   
@<TRIPOS>SUBSTRUCTURE
  1 ****   5 GROUP 4 **** **** 0

# MOE 2019.01 (io_trps.svl 2018.10)
