@<TRIPOS>MOLECULE
URI
29 30 1 0 0 
SMALL
USER_CHARGES


@<TRIPOS>ATOM
  1 N       -0.0010     0.6074    -0.7556 N.am  1 <1>   0.0418 
  2 C        0.9461    -0.3312    -1.2022 C.2   1 <1>   0.4687 
  3 N        1.2164    -0.3522    -2.5708 N.am  1 <1>  -0.3549 
  4 C        0.6220     0.4726    -3.5198 C.2   1 <1>   0.5952 
  5 C       -0.3419     1.4059    -2.9990 C.2   1 <1>  -0.3635 
  6 C       -0.6322     1.4598    -1.6713 C.2   1 <1>  -0.1126 
  7 O        1.5251    -1.1144    -0.4511 O.2   1 <1>  -0.5477 
  8 O        0.9293     0.3729    -4.7057 O.2   1 <1>  -0.5761 
  9 C       -0.3838     0.7226     0.6804 C.3   1 <1>   0.0674 
 10 C       -1.2329    -0.4522     1.1621 C.3   1 <1>   0.0670 
 11 C       -1.0492    -0.3417     2.6746 C.3   1 <1>   0.2022 
 12 C        0.4153     0.1070     2.7745 C.3   1 <1>   0.1065 
 13 O       -2.5839    -0.3662     0.7541 O.3   1 <1>  -0.6139 
 14 O       -1.8797     0.6530     3.2477 O.3   1 <1>  -0.6541 
 15 O        0.7289     0.7809     1.5597 O.3   1 <1>  -0.3548 
 16 C        1.3460    -1.0988     2.9598 C.3   1 <1>   0.0558 
 17 O        2.6747    -0.6663     3.1577 O.3   1 <1>  -0.6223 
 18 H        1.8959    -1.0233    -2.8993 H     1 <1>   0.3154 
 19 H       -0.8250     2.0549    -3.6829 H     1 <1>   0.1811 
 20 H       -1.3370     2.1303    -1.2490 H     1 <1>   0.2188 
 21 H       -0.9606     1.6369     0.8260 H     1 <1>   0.1824 
 22 H       -0.8060    -1.3927     0.8129 H     1 <1>   0.0972 
 23 H       -1.2159    -1.3012     3.1654 H     1 <1>   0.0615 
 24 H        0.5415     0.7854     3.6198 H     1 <1>   0.1174 
 25 H       -2.9459     0.4645     1.0715 H     1 <1>   0.4186 
 26 H       -1.7077     0.6868     4.1916 H     1 <1>   0.4376 
 27 H        1.2983    -1.7491     2.0868 H     1 <1>   0.0679 
 28 H        1.0305    -1.6635     3.8375 H     1 <1>   0.0679 
 29 H        2.9690    -0.2128     2.3644 H     1 <1>   0.4295 
@<TRIPOS>BOND
  1   1   2  am  
  2   1   6  1   
  3   1   9  1   
  4   2   3  am  
  5   2   7  2   
  6   3   4  am  
  7   3  18  1   
  8   4   5  1   
  9   4   8  2   
 10   5   6  2   
 11   5  19  1   
 12   6  20  1   
 13   9  10  1   
 14   9  15  1   
 15   9  21  1   
 16  10  11  1   
 17  10  13  1   
 18  10  22  1   
 19  11  12  1   
 20  11  14  1   
 21  11  23  1   
 22  12  15  1   
 23  12  16  1   
 24  12  24  1   
 25  13  25  1   
 26  14  26  1   
 27  16  17  1   
 28  16  27  1   
 29  16  28  1   
 30  17  29  1   
@<TRIPOS>SUBSTRUCTURE
  1 ****   1 GROUP 4 **** **** 0

# MOE 2019.01 (io_trps.svl 2018.10)
